<?xml version="1.0" encoding="UTF-8"?>

<!-- generated on Wed Sep 18 02:47:23 2019 by Eclipse SUMO netgenerate Version 1.2.0
<configuration xmlns:xsi="http://www.w3.org/2001/XMLSchema-instance" xsi:noNamespaceSchemaLocation="http://sumo.dlr.de/xsd/netgenerateConfiguration.xsd">

    <grid_network>
        <grid value="true"/>
        <grid.x-number value="5"/>
        <grid.y-number value="5"/>
        <grid.x-length value="150"/>
        <grid.y-length value="100"/>
    </grid_network>

    <output>
        <output-file value="networks/grid5.net.xml"/>
    </output>

    <building_defaults>
        <default-junction-type value="traffic_light"/>
    </building_defaults>

    <tls_building>
        <tls.allred.time value="2"/>
    </tls_building>

</configuration>
-->

<net version="1.1" junctionCornerDetail="5" limitTurnSpeed="5.50" xmlns:xsi="http://www.w3.org/2001/XMLSchema-instance" xsi:noNamespaceSchemaLocation="http://sumo.dlr.de/xsd/net_file.xsd">

    <location netOffset="0.00,0.00" convBoundary="0.00,0.00,600.00,400.00" origBoundary="0.00,0.00,600.00,400.00" projParameter="!"/>

    <edge id=":A0_0" function="internal">
        <lane id=":A0_0_0" index="0" speed="6.08" length="7.74" shape="-1.60,3.20 -1.30,1.10 -0.40,-0.40 1.10,-1.30 3.20,-1.60"/>
    </edge>
    <edge id=":A0_1" function="internal">
        <lane id=":A0_1_0" index="0" speed="3.90" length="2.58" shape="3.20,1.60 2.50,1.70 2.00,2.00 1.70,2.50 1.60,3.20"/>
    </edge>
    <edge id=":A1_0" function="internal">
        <lane id=":A1_0_0" index="0" speed="13.89" length="14.40" shape="-1.60,107.20 -1.60,92.80"/>
    </edge>
    <edge id=":A1_1" function="internal">
        <lane id=":A1_1_0" index="0" speed="8.00" length="5.93" shape="-1.60,107.20 -1.05,103.35 0.00,101.60"/>
    </edge>
    <edge id=":A1_2" function="internal">
        <lane id=":A1_2_0" index="0" speed="3.65" length="2.34" shape="-1.60,107.20 -0.80,106.00 0.00,105.60"/>
    </edge>
    <edge id=":A1_9" function="internal">
        <lane id=":A1_9_0" index="0" speed="8.00" length="8.26" shape="0.00,101.60 0.60,100.60 3.35,98.95 7.20,98.40"/>
    </edge>
    <edge id=":A1_10" function="internal">
        <lane id=":A1_10_0" index="0" speed="3.65" length="2.34" shape="0.00,105.60 0.80,106.00 1.60,107.20"/>
    </edge>
    <edge id=":A1_3" function="internal">
        <lane id=":A1_3_0" index="0" speed="6.51" length="9.03" shape="7.20,101.60 4.75,101.95 3.00,103.00 1.95,104.75 1.60,107.20"/>
    </edge>
    <edge id=":A1_4" function="internal">
        <lane id=":A1_4_0" index="0" speed="8.00" length="14.19" shape="7.20,101.60 3.35,101.05 0.60,99.40 -1.05,96.65 -1.60,92.80"/>
    </edge>
    <edge id=":A1_5" function="internal">
        <lane id=":A1_5_0" index="0" speed="3.65" length="2.56" shape="7.20,101.60 6.00,100.80 5.60,100.00 5.70,99.80"/>
    </edge>
    <edge id=":A1_11" function="internal">
        <lane id=":A1_11_0" index="0" speed="3.65" length="2.12" shape="5.70,99.80 6.00,99.20 7.20,98.40"/>
    </edge>
    <edge id=":A1_6" function="internal">
        <lane id=":A1_6_0" index="0" speed="6.51" length="9.03" shape="1.60,92.80 1.95,95.25 3.00,97.00 4.75,98.05 7.20,98.40"/>
    </edge>
    <edge id=":A1_7" function="internal">
        <lane id=":A1_7_0" index="0" speed="13.89" length="14.40" shape="1.60,92.80 1.60,107.20"/>
    </edge>
    <edge id=":A1_8" function="internal">
        <lane id=":A1_8_0" index="0" speed="3.65" length="2.34" shape="1.60,92.80 0.80,94.00 0.00,94.40"/>
    </edge>
    <edge id=":A1_12" function="internal">
        <lane id=":A1_12_0" index="0" speed="3.65" length="2.34" shape="0.00,94.40 -0.80,94.00 -1.60,92.80"/>
    </edge>
    <edge id=":A2_0" function="internal">
        <lane id=":A2_0_0" index="0" speed="13.89" length="14.40" shape="-1.60,207.20 -1.60,192.80"/>
    </edge>
    <edge id=":A2_1" function="internal">
        <lane id=":A2_1_0" index="0" speed="8.00" length="5.93" shape="-1.60,207.20 -1.05,203.35 0.00,201.60"/>
    </edge>
    <edge id=":A2_2" function="internal">
        <lane id=":A2_2_0" index="0" speed="3.65" length="2.34" shape="-1.60,207.20 -0.80,206.00 0.00,205.60"/>
    </edge>
    <edge id=":A2_9" function="internal">
        <lane id=":A2_9_0" index="0" speed="8.00" length="8.26" shape="0.00,201.60 0.60,200.60 3.35,198.95 7.20,198.40"/>
    </edge>
    <edge id=":A2_10" function="internal">
        <lane id=":A2_10_0" index="0" speed="3.65" length="2.34" shape="0.00,205.60 0.80,206.00 1.60,207.20"/>
    </edge>
    <edge id=":A2_3" function="internal">
        <lane id=":A2_3_0" index="0" speed="6.51" length="9.03" shape="7.20,201.60 4.75,201.95 3.00,203.00 1.95,204.75 1.60,207.20"/>
    </edge>
    <edge id=":A2_4" function="internal">
        <lane id=":A2_4_0" index="0" speed="8.00" length="14.19" shape="7.20,201.60 3.35,201.05 0.60,199.40 -1.05,196.65 -1.60,192.80"/>
    </edge>
    <edge id=":A2_5" function="internal">
        <lane id=":A2_5_0" index="0" speed="3.65" length="2.56" shape="7.20,201.60 6.00,200.80 5.60,200.00 5.70,199.80"/>
    </edge>
    <edge id=":A2_11" function="internal">
        <lane id=":A2_11_0" index="0" speed="3.65" length="2.12" shape="5.70,199.80 6.00,199.20 7.20,198.40"/>
    </edge>
    <edge id=":A2_6" function="internal">
        <lane id=":A2_6_0" index="0" speed="6.51" length="9.03" shape="1.60,192.80 1.95,195.25 3.00,197.00 4.75,198.05 7.20,198.40"/>
    </edge>
    <edge id=":A2_7" function="internal">
        <lane id=":A2_7_0" index="0" speed="13.89" length="14.40" shape="1.60,192.80 1.60,207.20"/>
    </edge>
    <edge id=":A2_8" function="internal">
        <lane id=":A2_8_0" index="0" speed="3.65" length="2.34" shape="1.60,192.80 0.80,194.00 0.00,194.40"/>
    </edge>
    <edge id=":A2_12" function="internal">
        <lane id=":A2_12_0" index="0" speed="3.65" length="2.34" shape="0.00,194.40 -0.80,194.00 -1.60,192.80"/>
    </edge>
    <edge id=":A3_0" function="internal">
        <lane id=":A3_0_0" index="0" speed="13.89" length="14.40" shape="-1.60,307.20 -1.60,292.80"/>
    </edge>
    <edge id=":A3_1" function="internal">
        <lane id=":A3_1_0" index="0" speed="8.00" length="5.93" shape="-1.60,307.20 -1.05,303.35 -0.00,301.60"/>
    </edge>
    <edge id=":A3_2" function="internal">
        <lane id=":A3_2_0" index="0" speed="3.65" length="2.34" shape="-1.60,307.20 -0.80,306.00 0.00,305.60"/>
    </edge>
    <edge id=":A3_9" function="internal">
        <lane id=":A3_9_0" index="0" speed="8.00" length="8.26" shape="-0.00,301.60 0.60,300.60 3.35,298.95 7.20,298.40"/>
    </edge>
    <edge id=":A3_10" function="internal">
        <lane id=":A3_10_0" index="0" speed="3.65" length="2.34" shape="0.00,305.60 0.80,306.00 1.60,307.20"/>
    </edge>
    <edge id=":A3_3" function="internal">
        <lane id=":A3_3_0" index="0" speed="6.51" length="9.03" shape="7.20,301.60 4.75,301.95 3.00,303.00 1.95,304.75 1.60,307.20"/>
    </edge>
    <edge id=":A3_4" function="internal">
        <lane id=":A3_4_0" index="0" speed="8.00" length="14.19" shape="7.20,301.60 3.35,301.05 0.60,299.40 -1.05,296.65 -1.60,292.80"/>
    </edge>
    <edge id=":A3_5" function="internal">
        <lane id=":A3_5_0" index="0" speed="3.65" length="2.56" shape="7.20,301.60 6.00,300.80 5.60,300.00 5.70,299.80"/>
    </edge>
    <edge id=":A3_11" function="internal">
        <lane id=":A3_11_0" index="0" speed="3.65" length="2.12" shape="5.70,299.80 6.00,299.20 7.20,298.40"/>
    </edge>
    <edge id=":A3_6" function="internal">
        <lane id=":A3_6_0" index="0" speed="6.51" length="9.03" shape="1.60,292.80 1.95,295.25 3.00,297.00 4.75,298.05 7.20,298.40"/>
    </edge>
    <edge id=":A3_7" function="internal">
        <lane id=":A3_7_0" index="0" speed="13.89" length="14.40" shape="1.60,292.80 1.60,307.20"/>
    </edge>
    <edge id=":A3_8" function="internal">
        <lane id=":A3_8_0" index="0" speed="3.65" length="2.34" shape="1.60,292.80 0.80,294.00 0.00,294.40"/>
    </edge>
    <edge id=":A3_12" function="internal">
        <lane id=":A3_12_0" index="0" speed="3.65" length="2.34" shape="0.00,294.40 -0.80,294.00 -1.60,292.80"/>
    </edge>
    <edge id=":A4_0" function="internal">
        <lane id=":A4_0_0" index="0" speed="6.08" length="7.74" shape="3.20,401.60 1.10,401.30 -0.40,400.40 -1.30,398.90 -1.60,396.80"/>
    </edge>
    <edge id=":A4_1" function="internal">
        <lane id=":A4_1_0" index="0" speed="3.90" length="2.58" shape="1.60,396.80 1.70,397.50 2.00,398.00 2.50,398.30 3.20,398.40"/>
    </edge>
    <edge id=":B0_0" function="internal">
        <lane id=":B0_0_0" index="0" speed="6.51" length="9.03" shape="148.40,7.20 148.05,4.75 147.00,3.00 145.25,1.95 142.80,1.60"/>
    </edge>
    <edge id=":B0_1" function="internal">
        <lane id=":B0_1_0" index="0" speed="8.00" length="14.19" shape="148.40,7.20 148.95,3.35 150.60,0.60 153.35,-1.05 157.20,-1.60"/>
    </edge>
    <edge id=":B0_2" function="internal">
        <lane id=":B0_2_0" index="0" speed="3.65" length="2.56" shape="148.40,7.20 149.20,6.00 150.00,5.60 150.20,5.70"/>
    </edge>
    <edge id=":B0_9" function="internal">
        <lane id=":B0_9_0" index="0" speed="3.65" length="2.12" shape="150.20,5.70 150.80,6.00 151.60,7.20"/>
    </edge>
    <edge id=":B0_3" function="internal">
        <lane id=":B0_3_0" index="0" speed="6.51" length="9.03" shape="157.20,1.60 154.75,1.95 153.00,3.00 151.95,4.75 151.60,7.20"/>
    </edge>
    <edge id=":B0_4" function="internal">
        <lane id=":B0_4_0" index="0" speed="13.89" length="14.40" shape="157.20,1.60 142.80,1.60"/>
    </edge>
    <edge id=":B0_5" function="internal">
        <lane id=":B0_5_0" index="0" speed="3.65" length="2.34" shape="157.20,1.60 156.00,0.80 155.60,0.00"/>
    </edge>
    <edge id=":B0_10" function="internal">
        <lane id=":B0_10_0" index="0" speed="3.65" length="2.34" shape="155.60,0.00 156.00,-0.80 157.20,-1.60"/>
    </edge>
    <edge id=":B0_6" function="internal">
        <lane id=":B0_6_0" index="0" speed="13.89" length="14.40" shape="142.80,-1.60 157.20,-1.60"/>
    </edge>
    <edge id=":B0_7" function="internal">
        <lane id=":B0_7_0" index="0" speed="8.00" length="5.93" shape="142.80,-1.60 146.65,-1.05 148.40,0.00"/>
    </edge>
    <edge id=":B0_8" function="internal">
        <lane id=":B0_8_0" index="0" speed="3.65" length="2.34" shape="142.80,-1.60 144.00,-0.80 144.40,0.00"/>
    </edge>
    <edge id=":B0_11" function="internal">
        <lane id=":B0_11_0" index="0" speed="8.00" length="8.26" shape="148.40,0.00 149.40,0.60 151.05,3.35 151.60,7.20"/>
    </edge>
    <edge id=":B0_12" function="internal">
        <lane id=":B0_12_0" index="0" speed="3.65" length="2.34" shape="144.40,0.00 144.00,0.80 142.80,1.60"/>
    </edge>
    <edge id=":B1_0" function="internal">
        <lane id=":B1_0_0" index="0" speed="6.51" length="9.03" shape="148.40,107.20 148.05,104.75 147.00,103.00 145.25,101.95 142.80,101.60"/>
    </edge>
    <edge id=":B1_1" function="internal">
        <lane id=":B1_1_0" index="0" speed="13.89" length="14.40" shape="148.40,107.20 148.40,92.80"/>
    </edge>
    <edge id=":B1_2" function="internal">
        <lane id=":B1_2_0" index="0" speed="8.00" length="5.93" shape="148.40,107.20 148.95,103.35 150.00,101.60"/>
    </edge>
    <edge id=":B1_3" function="internal">
        <lane id=":B1_3_0" index="0" speed="3.65" length="2.34" shape="148.40,107.20 149.20,106.00 150.00,105.60"/>
    </edge>
    <edge id=":B1_16" function="internal">
        <lane id=":B1_16_0" index="0" speed="8.00" length="8.26" shape="150.00,101.60 150.60,100.60 153.35,98.95 157.20,98.40"/>
    </edge>
    <edge id=":B1_17" function="internal">
        <lane id=":B1_17_0" index="0" speed="3.65" length="2.34" shape="150.00,105.60 150.80,106.00 151.60,107.20"/>
    </edge>
    <edge id=":B1_4" function="internal">
        <lane id=":B1_4_0" index="0" speed="6.51" length="9.03" shape="157.20,101.60 154.75,101.95 153.00,103.00 151.95,104.75 151.60,107.20"/>
    </edge>
    <edge id=":B1_5" function="internal">
        <lane id=":B1_5_0" index="0" speed="13.89" length="14.40" shape="157.20,101.60 142.80,101.60"/>
    </edge>
    <edge id=":B1_6" function="internal">
        <lane id=":B1_6_0" index="0" speed="8.00" length="5.93" shape="157.20,101.60 153.35,101.05 151.60,100.00"/>
    </edge>
    <edge id=":B1_7" function="internal">
        <lane id=":B1_7_0" index="0" speed="3.65" length="2.34" shape="157.20,101.60 156.00,100.80 155.60,100.00"/>
    </edge>
    <edge id=":B1_18" function="internal">
        <lane id=":B1_18_0" index="0" speed="8.00" length="8.26" shape="151.60,100.00 150.60,99.40 148.95,96.65 148.40,92.80"/>
    </edge>
    <edge id=":B1_19" function="internal">
        <lane id=":B1_19_0" index="0" speed="3.65" length="2.34" shape="155.60,100.00 156.00,99.20 157.20,98.40"/>
    </edge>
    <edge id=":B1_8" function="internal">
        <lane id=":B1_8_0" index="0" speed="6.51" length="9.03" shape="151.60,92.80 151.95,95.25 153.00,97.00 154.75,98.05 157.20,98.40"/>
    </edge>
    <edge id=":B1_9" function="internal">
        <lane id=":B1_9_0" index="0" speed="13.89" length="14.40" shape="151.60,92.80 151.60,107.20"/>
    </edge>
    <edge id=":B1_10" function="internal">
        <lane id=":B1_10_0" index="0" speed="8.00" length="5.93" shape="151.60,92.80 151.05,96.65 150.00,98.40"/>
    </edge>
    <edge id=":B1_11" function="internal">
        <lane id=":B1_11_0" index="0" speed="3.65" length="2.34" shape="151.60,92.80 150.80,94.00 150.00,94.40"/>
    </edge>
    <edge id=":B1_20" function="internal">
        <lane id=":B1_20_0" index="0" speed="8.00" length="8.26" shape="150.00,98.40 149.40,99.40 146.65,101.05 142.80,101.60"/>
    </edge>
    <edge id=":B1_21" function="internal">
        <lane id=":B1_21_0" index="0" speed="3.65" length="2.34" shape="150.00,94.40 149.20,94.00 148.40,92.80"/>
    </edge>
    <edge id=":B1_12" function="internal">
        <lane id=":B1_12_0" index="0" speed="6.51" length="9.03" shape="142.80,98.40 145.25,98.05 147.00,97.00 148.05,95.25 148.40,92.80"/>
    </edge>
    <edge id=":B1_13" function="internal">
        <lane id=":B1_13_0" index="0" speed="13.89" length="14.40" shape="142.80,98.40 157.20,98.40"/>
    </edge>
    <edge id=":B1_14" function="internal">
        <lane id=":B1_14_0" index="0" speed="8.00" length="5.93" shape="142.80,98.40 146.65,98.95 148.40,100.00"/>
    </edge>
    <edge id=":B1_15" function="internal">
        <lane id=":B1_15_0" index="0" speed="3.65" length="2.34" shape="142.80,98.40 144.00,99.20 144.40,100.00"/>
    </edge>
    <edge id=":B1_22" function="internal">
        <lane id=":B1_22_0" index="0" speed="8.00" length="8.26" shape="148.40,100.00 149.40,100.60 151.05,103.35 151.60,107.20"/>
    </edge>
    <edge id=":B1_23" function="internal">
        <lane id=":B1_23_0" index="0" speed="3.65" length="2.34" shape="144.40,100.00 144.00,100.80 142.80,101.60"/>
    </edge>
    <edge id=":B2_0" function="internal">
        <lane id=":B2_0_0" index="0" speed="6.51" length="9.03" shape="148.40,207.20 148.05,204.75 147.00,203.00 145.25,201.95 142.80,201.60"/>
    </edge>
    <edge id=":B2_1" function="internal">
        <lane id=":B2_1_0" index="0" speed="13.89" length="14.40" shape="148.40,207.20 148.40,192.80"/>
    </edge>
    <edge id=":B2_2" function="internal">
        <lane id=":B2_2_0" index="0" speed="8.00" length="5.93" shape="148.40,207.20 148.95,203.35 150.00,201.60"/>
    </edge>
    <edge id=":B2_3" function="internal">
        <lane id=":B2_3_0" index="0" speed="3.65" length="2.34" shape="148.40,207.20 149.20,206.00 150.00,205.60"/>
    </edge>
    <edge id=":B2_16" function="internal">
        <lane id=":B2_16_0" index="0" speed="8.00" length="8.26" shape="150.00,201.60 150.60,200.60 153.35,198.95 157.20,198.40"/>
    </edge>
    <edge id=":B2_17" function="internal">
        <lane id=":B2_17_0" index="0" speed="3.65" length="2.34" shape="150.00,205.60 150.80,206.00 151.60,207.20"/>
    </edge>
    <edge id=":B2_4" function="internal">
        <lane id=":B2_4_0" index="0" speed="6.51" length="9.03" shape="157.20,201.60 154.75,201.95 153.00,203.00 151.95,204.75 151.60,207.20"/>
    </edge>
    <edge id=":B2_5" function="internal">
        <lane id=":B2_5_0" index="0" speed="13.89" length="14.40" shape="157.20,201.60 142.80,201.60"/>
    </edge>
    <edge id=":B2_6" function="internal">
        <lane id=":B2_6_0" index="0" speed="8.00" length="5.93" shape="157.20,201.60 153.35,201.05 151.60,200.00"/>
    </edge>
    <edge id=":B2_7" function="internal">
        <lane id=":B2_7_0" index="0" speed="3.65" length="2.34" shape="157.20,201.60 156.00,200.80 155.60,200.00"/>
    </edge>
    <edge id=":B2_18" function="internal">
        <lane id=":B2_18_0" index="0" speed="8.00" length="8.26" shape="151.60,200.00 150.60,199.40 148.95,196.65 148.40,192.80"/>
    </edge>
    <edge id=":B2_19" function="internal">
        <lane id=":B2_19_0" index="0" speed="3.65" length="2.34" shape="155.60,200.00 156.00,199.20 157.20,198.40"/>
    </edge>
    <edge id=":B2_8" function="internal">
        <lane id=":B2_8_0" index="0" speed="6.51" length="9.03" shape="151.60,192.80 151.95,195.25 153.00,197.00 154.75,198.05 157.20,198.40"/>
    </edge>
    <edge id=":B2_9" function="internal">
        <lane id=":B2_9_0" index="0" speed="13.89" length="14.40" shape="151.60,192.80 151.60,207.20"/>
    </edge>
    <edge id=":B2_10" function="internal">
        <lane id=":B2_10_0" index="0" speed="8.00" length="5.93" shape="151.60,192.80 151.05,196.65 150.00,198.40"/>
    </edge>
    <edge id=":B2_11" function="internal">
        <lane id=":B2_11_0" index="0" speed="3.65" length="2.34" shape="151.60,192.80 150.80,194.00 150.00,194.40"/>
    </edge>
    <edge id=":B2_20" function="internal">
        <lane id=":B2_20_0" index="0" speed="8.00" length="8.26" shape="150.00,198.40 149.40,199.40 146.65,201.05 142.80,201.60"/>
    </edge>
    <edge id=":B2_21" function="internal">
        <lane id=":B2_21_0" index="0" speed="3.65" length="2.34" shape="150.00,194.40 149.20,194.00 148.40,192.80"/>
    </edge>
    <edge id=":B2_12" function="internal">
        <lane id=":B2_12_0" index="0" speed="6.51" length="9.03" shape="142.80,198.40 145.25,198.05 147.00,197.00 148.05,195.25 148.40,192.80"/>
    </edge>
    <edge id=":B2_13" function="internal">
        <lane id=":B2_13_0" index="0" speed="13.89" length="14.40" shape="142.80,198.40 157.20,198.40"/>
    </edge>
    <edge id=":B2_14" function="internal">
        <lane id=":B2_14_0" index="0" speed="8.00" length="5.93" shape="142.80,198.40 146.65,198.95 148.40,200.00"/>
    </edge>
    <edge id=":B2_15" function="internal">
        <lane id=":B2_15_0" index="0" speed="3.65" length="2.34" shape="142.80,198.40 144.00,199.20 144.40,200.00"/>
    </edge>
    <edge id=":B2_22" function="internal">
        <lane id=":B2_22_0" index="0" speed="8.00" length="8.26" shape="148.40,200.00 149.40,200.60 151.05,203.35 151.60,207.20"/>
    </edge>
    <edge id=":B2_23" function="internal">
        <lane id=":B2_23_0" index="0" speed="3.65" length="2.34" shape="144.40,200.00 144.00,200.80 142.80,201.60"/>
    </edge>
    <edge id=":B3_0" function="internal">
        <lane id=":B3_0_0" index="0" speed="6.51" length="9.03" shape="148.40,307.20 148.05,304.75 147.00,303.00 145.25,301.95 142.80,301.60"/>
    </edge>
    <edge id=":B3_1" function="internal">
        <lane id=":B3_1_0" index="0" speed="13.89" length="14.40" shape="148.40,307.20 148.40,292.80"/>
    </edge>
    <edge id=":B3_2" function="internal">
        <lane id=":B3_2_0" index="0" speed="8.00" length="5.93" shape="148.40,307.20 148.95,303.35 150.00,301.60"/>
    </edge>
    <edge id=":B3_3" function="internal">
        <lane id=":B3_3_0" index="0" speed="3.65" length="2.34" shape="148.40,307.20 149.20,306.00 150.00,305.60"/>
    </edge>
    <edge id=":B3_16" function="internal">
        <lane id=":B3_16_0" index="0" speed="8.00" length="8.26" shape="150.00,301.60 150.60,300.60 153.35,298.95 157.20,298.40"/>
    </edge>
    <edge id=":B3_17" function="internal">
        <lane id=":B3_17_0" index="0" speed="3.65" length="2.34" shape="150.00,305.60 150.80,306.00 151.60,307.20"/>
    </edge>
    <edge id=":B3_4" function="internal">
        <lane id=":B3_4_0" index="0" speed="6.51" length="9.03" shape="157.20,301.60 154.75,301.95 153.00,303.00 151.95,304.75 151.60,307.20"/>
    </edge>
    <edge id=":B3_5" function="internal">
        <lane id=":B3_5_0" index="0" speed="13.89" length="14.40" shape="157.20,301.60 142.80,301.60"/>
    </edge>
    <edge id=":B3_6" function="internal">
        <lane id=":B3_6_0" index="0" speed="8.00" length="5.93" shape="157.20,301.60 153.35,301.05 151.60,300.00"/>
    </edge>
    <edge id=":B3_7" function="internal">
        <lane id=":B3_7_0" index="0" speed="3.65" length="2.34" shape="157.20,301.60 156.00,300.80 155.60,300.00"/>
    </edge>
    <edge id=":B3_18" function="internal">
        <lane id=":B3_18_0" index="0" speed="8.00" length="8.26" shape="151.60,300.00 150.60,299.40 148.95,296.65 148.40,292.80"/>
    </edge>
    <edge id=":B3_19" function="internal">
        <lane id=":B3_19_0" index="0" speed="3.65" length="2.34" shape="155.60,300.00 156.00,299.20 157.20,298.40"/>
    </edge>
    <edge id=":B3_8" function="internal">
        <lane id=":B3_8_0" index="0" speed="6.51" length="9.03" shape="151.60,292.80 151.95,295.25 153.00,297.00 154.75,298.05 157.20,298.40"/>
    </edge>
    <edge id=":B3_9" function="internal">
        <lane id=":B3_9_0" index="0" speed="13.89" length="14.40" shape="151.60,292.80 151.60,307.20"/>
    </edge>
    <edge id=":B3_10" function="internal">
        <lane id=":B3_10_0" index="0" speed="8.00" length="5.93" shape="151.60,292.80 151.05,296.65 150.00,298.40"/>
    </edge>
    <edge id=":B3_11" function="internal">
        <lane id=":B3_11_0" index="0" speed="3.65" length="2.34" shape="151.60,292.80 150.80,294.00 150.00,294.40"/>
    </edge>
    <edge id=":B3_20" function="internal">
        <lane id=":B3_20_0" index="0" speed="8.00" length="8.26" shape="150.00,298.40 149.40,299.40 146.65,301.05 142.80,301.60"/>
    </edge>
    <edge id=":B3_21" function="internal">
        <lane id=":B3_21_0" index="0" speed="3.65" length="2.34" shape="150.00,294.40 149.20,294.00 148.40,292.80"/>
    </edge>
    <edge id=":B3_12" function="internal">
        <lane id=":B3_12_0" index="0" speed="6.51" length="9.03" shape="142.80,298.40 145.25,298.05 147.00,297.00 148.05,295.25 148.40,292.80"/>
    </edge>
    <edge id=":B3_13" function="internal">
        <lane id=":B3_13_0" index="0" speed="13.89" length="14.40" shape="142.80,298.40 157.20,298.40"/>
    </edge>
    <edge id=":B3_14" function="internal">
        <lane id=":B3_14_0" index="0" speed="8.00" length="5.93" shape="142.80,298.40 146.65,298.95 148.40,300.00"/>
    </edge>
    <edge id=":B3_15" function="internal">
        <lane id=":B3_15_0" index="0" speed="3.65" length="2.34" shape="142.80,298.40 144.00,299.20 144.40,300.00"/>
    </edge>
    <edge id=":B3_22" function="internal">
        <lane id=":B3_22_0" index="0" speed="8.00" length="8.26" shape="148.40,300.00 149.40,300.60 151.05,303.35 151.60,307.20"/>
    </edge>
    <edge id=":B3_23" function="internal">
        <lane id=":B3_23_0" index="0" speed="3.65" length="2.34" shape="144.40,300.00 144.00,300.80 142.80,301.60"/>
    </edge>
    <edge id=":B4_0" function="internal">
        <lane id=":B4_0_0" index="0" speed="13.89" length="14.40" shape="157.20,401.60 142.80,401.60"/>
    </edge>
    <edge id=":B4_1" function="internal">
        <lane id=":B4_1_0" index="0" speed="8.00" length="5.93" shape="157.20,401.60 153.35,401.05 151.60,400.00"/>
    </edge>
    <edge id=":B4_2" function="internal">
        <lane id=":B4_2_0" index="0" speed="3.65" length="2.34" shape="157.20,401.60 156.00,400.80 155.60,400.00"/>
    </edge>
    <edge id=":B4_9" function="internal">
        <lane id=":B4_9_0" index="0" speed="8.00" length="8.26" shape="151.60,400.00 150.60,399.40 148.95,396.65 148.40,392.80"/>
    </edge>
    <edge id=":B4_10" function="internal">
        <lane id=":B4_10_0" index="0" speed="3.65" length="2.34" shape="155.60,400.00 156.00,399.20 157.20,398.40"/>
    </edge>
    <edge id=":B4_3" function="internal">
        <lane id=":B4_3_0" index="0" speed="6.51" length="9.03" shape="151.60,392.80 151.95,395.25 153.00,397.00 154.75,398.05 157.20,398.40"/>
    </edge>
    <edge id=":B4_4" function="internal">
        <lane id=":B4_4_0" index="0" speed="8.00" length="14.19" shape="151.60,392.80 151.05,396.65 149.40,399.40 146.65,401.05 142.80,401.60"/>
    </edge>
    <edge id=":B4_5" function="internal">
        <lane id=":B4_5_0" index="0" speed="3.65" length="2.56" shape="151.60,392.80 150.80,394.00 150.00,394.40 149.80,394.30"/>
    </edge>
    <edge id=":B4_11" function="internal">
        <lane id=":B4_11_0" index="0" speed="3.65" length="2.12" shape="149.80,394.30 149.20,394.00 148.40,392.80"/>
    </edge>
    <edge id=":B4_6" function="internal">
        <lane id=":B4_6_0" index="0" speed="6.51" length="9.03" shape="142.80,398.40 145.25,398.05 147.00,397.00 148.05,395.25 148.40,392.80"/>
    </edge>
    <edge id=":B4_7" function="internal">
        <lane id=":B4_7_0" index="0" speed="13.89" length="14.40" shape="142.80,398.40 157.20,398.40"/>
    </edge>
    <edge id=":B4_8" function="internal">
        <lane id=":B4_8_0" index="0" speed="3.65" length="2.34" shape="142.80,398.40 144.00,399.20 144.40,400.00"/>
    </edge>
    <edge id=":B4_12" function="internal">
        <lane id=":B4_12_0" index="0" speed="3.65" length="2.34" shape="144.40,400.00 144.00,400.80 142.80,401.60"/>
    </edge>
    <edge id=":C0_0" function="internal">
        <lane id=":C0_0_0" index="0" speed="6.51" length="9.03" shape="298.40,7.20 298.05,4.75 297.00,3.00 295.25,1.95 292.80,1.60"/>
    </edge>
    <edge id=":C0_1" function="internal">
        <lane id=":C0_1_0" index="0" speed="8.00" length="14.19" shape="298.40,7.20 298.95,3.35 300.60,0.60 303.35,-1.05 307.20,-1.60"/>
    </edge>
    <edge id=":C0_2" function="internal">
        <lane id=":C0_2_0" index="0" speed="3.65" length="2.56" shape="298.40,7.20 299.20,6.00 300.00,5.60 300.20,5.70"/>
    </edge>
    <edge id=":C0_9" function="internal">
        <lane id=":C0_9_0" index="0" speed="3.65" length="2.12" shape="300.20,5.70 300.80,6.00 301.60,7.20"/>
    </edge>
    <edge id=":C0_3" function="internal">
        <lane id=":C0_3_0" index="0" speed="6.51" length="9.03" shape="307.20,1.60 304.75,1.95 303.00,3.00 301.95,4.75 301.60,7.20"/>
    </edge>
    <edge id=":C0_4" function="internal">
        <lane id=":C0_4_0" index="0" speed="13.89" length="14.40" shape="307.20,1.60 292.80,1.60"/>
    </edge>
    <edge id=":C0_5" function="internal">
        <lane id=":C0_5_0" index="0" speed="3.65" length="2.34" shape="307.20,1.60 306.00,0.80 305.60,0.00"/>
    </edge>
    <edge id=":C0_10" function="internal">
        <lane id=":C0_10_0" index="0" speed="3.65" length="2.34" shape="305.60,0.00 306.00,-0.80 307.20,-1.60"/>
    </edge>
    <edge id=":C0_6" function="internal">
        <lane id=":C0_6_0" index="0" speed="13.89" length="14.40" shape="292.80,-1.60 307.20,-1.60"/>
    </edge>
    <edge id=":C0_7" function="internal">
        <lane id=":C0_7_0" index="0" speed="8.00" length="5.93" shape="292.80,-1.60 296.65,-1.05 298.40,-0.00"/>
    </edge>
    <edge id=":C0_8" function="internal">
        <lane id=":C0_8_0" index="0" speed="3.65" length="2.34" shape="292.80,-1.60 294.00,-0.80 294.40,0.00"/>
    </edge>
    <edge id=":C0_11" function="internal">
        <lane id=":C0_11_0" index="0" speed="8.00" length="8.26" shape="298.40,-0.00 299.40,0.60 301.05,3.35 301.60,7.20"/>
    </edge>
    <edge id=":C0_12" function="internal">
        <lane id=":C0_12_0" index="0" speed="3.65" length="2.34" shape="294.40,0.00 294.00,0.80 292.80,1.60"/>
    </edge>
    <edge id=":C1_0" function="internal">
        <lane id=":C1_0_0" index="0" speed="6.51" length="9.03" shape="298.40,107.20 298.05,104.75 297.00,103.00 295.25,101.95 292.80,101.60"/>
    </edge>
    <edge id=":C1_1" function="internal">
        <lane id=":C1_1_0" index="0" speed="13.89" length="14.40" shape="298.40,107.20 298.40,92.80"/>
    </edge>
    <edge id=":C1_2" function="internal">
        <lane id=":C1_2_0" index="0" speed="8.00" length="5.93" shape="298.40,107.20 298.95,103.35 300.00,101.60"/>
    </edge>
    <edge id=":C1_3" function="internal">
        <lane id=":C1_3_0" index="0" speed="3.65" length="2.34" shape="298.40,107.20 299.20,106.00 300.00,105.60"/>
    </edge>
    <edge id=":C1_16" function="internal">
        <lane id=":C1_16_0" index="0" speed="8.00" length="8.26" shape="300.00,101.60 300.60,100.60 303.35,98.95 307.20,98.40"/>
    </edge>
    <edge id=":C1_17" function="internal">
        <lane id=":C1_17_0" index="0" speed="3.65" length="2.34" shape="300.00,105.60 300.80,106.00 301.60,107.20"/>
    </edge>
    <edge id=":C1_4" function="internal">
        <lane id=":C1_4_0" index="0" speed="6.51" length="9.03" shape="307.20,101.60 304.75,101.95 303.00,103.00 301.95,104.75 301.60,107.20"/>
    </edge>
    <edge id=":C1_5" function="internal">
        <lane id=":C1_5_0" index="0" speed="13.89" length="14.40" shape="307.20,101.60 292.80,101.60"/>
    </edge>
    <edge id=":C1_6" function="internal">
        <lane id=":C1_6_0" index="0" speed="8.00" length="5.93" shape="307.20,101.60 303.35,101.05 301.60,100.00"/>
    </edge>
    <edge id=":C1_7" function="internal">
        <lane id=":C1_7_0" index="0" speed="3.65" length="2.34" shape="307.20,101.60 306.00,100.80 305.60,100.00"/>
    </edge>
    <edge id=":C1_18" function="internal">
        <lane id=":C1_18_0" index="0" speed="8.00" length="8.26" shape="301.60,100.00 300.60,99.40 298.95,96.65 298.40,92.80"/>
    </edge>
    <edge id=":C1_19" function="internal">
        <lane id=":C1_19_0" index="0" speed="3.65" length="2.34" shape="305.60,100.00 306.00,99.20 307.20,98.40"/>