<?xml version="1.0" encoding="UTF-8"?>

<!-- generated on Sat Nov  2 14:56:45 2019 by Eclipse SUMO netconvert Version 1.2.0
<configuration xmlns:xsi="http://www.w3.org/2001/XMLSchema-instance" xsi:noNamespaceSchemaLocation="http://sumo.dlr.de/xsd/netconvertConfiguration.xsd">

    <input>
        <node-files value="cross.nod.xml"/>
        <edge-files value="cross_3lanes.edg.xml"/>
        <connection-files value="cross_3lanes.con.xml"/>
    </input>

    <output>
        <output-file value="isolated_3_lanes.net.xml"/>
    </output>

</configuration>
-->

<net version="1.1" junctionCornerDetail="5" limitTurnSpeed="5.50" xmlns:xsi="http://www.w3.org/2001/XMLSchema-instance" xsi:noNamespaceSchemaLocation="http://sumo.dlr.de/xsd/net_file.xsd">

    <location netOffset="310.00,310.00" convBoundary="0.00,0.00,620.00,620.00" origBoundary="-310.00,-310.00,310.00,310.00" projParameter="!"/>

    <edge id=":0_0" function="internal">
        <lane id=":0_0_0" index="0" speed="6.51" length="9.03" shape="302.00,323.60 301.65,321.15 300.60,319.40 298.85,318.35 296.40,318.00"/>
    </edge>
    <edge id=":0_1" function="internal">
        <lane id=":0_1_0" index="0" speed="7.33" length="11.73" shape="302.00,323.60 301.65,319.75 300.60,317.00 298.85,315.35 296.40,314.80"/>
    </edge>
    <edge id=":0_2" function="internal">
        <lane id=":0_2_0" index="0" speed="8.10" length="14.57" shape="302.00,323.60 301.65,318.35 300.60,314.60 298.85,312.35 296.40,311.60"/>
    </edge>
    <edge id=":0_3" function="internal">
        <lane id=":0_3_0" index="0" speed="19.44" length="27.20" shape="302.00,323.60 302.00,296.40"/>
        <lane id=":0_3_1" index="1" speed="19.44" length="27.20" shape="305.20,323.60 305.20,296.40"/>
        <lane id=":0_3_2" index="2" speed="19.44" length="27.20" shape="308.40,323.60 308.40,296.40"/>
    </edge>
    <edge id=":0_6" function="internal">
        <lane id=":0_6_0" index="0" speed="11.39" length="11.17" shape="308.40,323.60 309.35,314.15 310.00,312.61"/>
    </edge>
    <edge id=":0_7" function="internal">
        <lane id=":0_7_0" index="0" speed="10.88" length="9.57" shape="308.40,323.60 309.35,315.55 310.00,314.24"/>
    </edge>
    <edge id=":0_8" function="internal">
        <lane id=":0_8_0" index="0" speed="10.36" length="7.98" shape="308.40,323.60 309.35,316.95 310.00,315.87"/>
    </edge>
    <edge id=":0_36" function="internal">
        <lane id=":0_36_0" index="0" speed="11.39" length="18.68" shape="310.00,312.61 312.20,307.40 316.95,303.35 323.60,302.00"/>
    </edge>
    <edge id=":0_37" function="internal">
        <lane id=":0_37_0" index="0" speed="10.88" length="17.57" shape="310.00,314.24 312.20,309.80 316.95,306.35 323.60,305.20"/>
    </edge>
    <edge id=":0_38" function="internal">
        <lane id=":0_38_0" index="0" speed="10.36" length="16.53" shape="310.00,315.87 312.20,312.20 316.95,309.35 323.60,308.40"/>
    </edge>
    <edge id=":0_9" function="internal">
        <lane id=":0_9_0" index="0" speed="6.51" length="9.03" shape="323.60,318.00 321.15,318.35 319.40,319.40 318.35,321.15 318.00,323.60"/>
    </edge>
    <edge id=":0_10" function="internal">
        <lane id=":0_10_0" index="0" speed="7.33" length="11.73" shape="323.60,318.00 319.75,318.35 317.00,319.40 315.35,321.15 314.80,323.60"/>
    </edge>
    <edge id=":0_11" function="internal">
        <lane id=":0_11_0" index="0" speed="8.10" length="14.57" shape="323.60,318.00 318.35,318.35 314.60,319.40 312.35,321.15 311.60,323.60"/>
    </edge>
    <edge id=":0_12" function="internal">
        <lane id=":0_12_0" index="0" speed="19.44" length="27.20" shape="323.60,318.00 296.40,318.00"/>
        <lane id=":0_12_1" index="1" speed="19.44" length="27.20" shape="323.60,314.80 296.40,314.80"/>
        <lane id=":0_12_2" index="2" speed="19.44" length="27.20" shape="323.60,311.60 296.40,311.60"/>
    </edge>
    <edge id=":0_15" function="internal">
        <lane id=":0_15_0" index="0" speed="11.39" length="11.17" shape="323.60,311.60 314.15,310.65 312.61,310.00"/>
    </edge>
    <edge id=":0_16" function="internal">
        <lane id=":0_16_0" index="0" speed="10.88" length="9.57" shape="323.60,311.60 315.55,310.65 314.24,310.00"/>
    </edge>
    <edge id=":0_17" function="internal">
        <lane id=":0_17_0" index="0" speed="10.36" length="7.98" shape="323.60,311.60 316.95,310.65 315.87,310.00"/>
    </edge>
    <edge id=":0_39" function="internal">
        <lane id=":0_39_0" index="0" speed="11.39" length="18.68" shape="312.61,310.00 307.40,307.80 303.35,303.05 302.00,296.40"/>
    </edge>
    <edge id=":0_40" function="internal">
        <lane id=":0_40_0" index="0" speed="10.88" length="17.57" shape="314.24,310.00 309.80,307.80 306.35,303.05 305.20,296.40"/>
    </edge>
    <edge id=":0_41" function="internal">
        <lane id=":0_41_0" index="0" speed="10.36" length="16.53" shape="315.87,310.00 312.20,307.80 309.35,303.05 308.40,296.40"/>
    </edge>
    <edge id=":0_18" function="internal">
        <lane id=":0_18_0" index="0" speed="6.51" length="9.03" shape="318.00,296.40 318.35,298.85 319.40,300.60 321.15,301.65 323.60,302.00"/>
    </edge>
    <edge id=":0_19" function="internal">
        <lane id=":0_19_0" index="0" speed="7.33" length="11.73" shape="318.00,296.40 318.35,300.25 319.40,303.00 321.15,304.65 323.60,305.20"/>
    </edge>
    <edge id=":0_20" function="internal">
        <lane id=":0_20_0" index="0" speed="8.10" length="14.57" shape="318.00,296.40 318.35,301.65 319.40,305.40 321.15,307.65 323.60,308.40"/>
    </edge>
    <edge id=":0_21" function="internal">
        <lane id=":0_21_0" index="0" speed="19.44" length="27.20" shape="318.00,296.40 318.00,323.60"/>
        <lane id=":0_21_1" index="1" speed="19.44" length="27.20" shape="314.80,296.40 314.80,323.60"/>
        <lane id=":0_21_2" index="2" speed="19.44" length="27.20" shape="311.60,296.40 311.60,323.60"/>
    </edge>
    <edge id=":0_24" function="internal">
        <lane id=":0_24_0" index="0" speed="11.39" length="11.17" shape="311.60,296.40 310.65,305.85 310.00,307.39"/>
    </edge>
    <edge id=":0_25" function="internal">
        <lane id=":0_25_0" index="0" speed="10.88" length="9.57" shape="311.60,296.40 310.65,304.45 310.00,305.76"/>
    </edge>
    <edge id=":0_26" function="internal">
        <lane id=":0_26_0" index="0" speed="10.36" length="7.98" shape="311.60,296.40 310.65,303.05 310.00,304.13"/>
    </edge>
    <edge id=":0_42" function="internal">
        <lane id=":0_42_0" index="0" speed="11.39" length="18.68" shape="310.00,307.39 307.80,312.60 303.05,316.65 296.40,318.00"/>
    </edge>
    <edge id=":0_43" function="internal">
        <lane id=":0_43_0" index="0" speed="10.88" length="17.57" shape="310.00,305.76 307.80,310.20 303.05,313.65 296.40,314.80"/>
    </edge>
    <edge id=":0_44" function="internal">
        <lane id=":0_44_0" index="0" speed="10.36" length="16.53" shape="310.00,304.13 307.80,307.80 303.05,310.65 296.40,311.60"/>
    </edge>
    <edge id=":0_27" function="internal">
        <lane id=":0_27_0" index="0" speed="6.51" length="9.03" shape="296.40,302.00 298.85,301.65 300.60,300.60 301.65,298.85 302.00,296.40"/>
    </edge>
    <edge id=":0_28" function="internal">
        <lane id=":0_28_0" index="0" speed="7.33" length="11.73" shape="296.40,302.00 300.25,301.65 303.00,300.60 304.65,298.85 305.20,296.40"/>
    </edge>
    <edge id=":0_29" function="internal">
        <lane id=":0_29_0" index="0" speed="8.10" length="14.57" shape="296.40,302.00 301.65,301.65 305.40,300.60 307.65,298.85 308.40,296.40"/>
    </edge>
    <edge id=":0_30" function="internal">
        <lane id=":0_30_0" index="0" speed="19.44" length="27.20" shape="296.40,302.00 323.60,302.00"/>
        <lane id=":0_30_1" index="1" speed="19.44" length="27.20" shape="296.40,305.20 323.60,305.20"/>
        <lane id=":0_30_2" index="2" speed="19.44" length="27.20" shape="296.40,308.40 323.60,308.40"/>
    </edge>
    <edge id=":0_33" function="internal">
        <lane id=":0_33_0" index="0" speed="11.39" length="11.17" shape="296.40,308.40 305.85,309.35 307.39,310.00"/>
    </edge>
    <edge id=":0_34" function="internal">
        <lane id=":0_34_0" index="0" speed="10.88" length="9.57" shape="296.40,308.40 304.45,309.35 305.76,310.00"/>
    </edge>
    <edge id=":0_35" function="internal">
        <lane id=":0_35_0" index="0" speed="10.36" length="7.98" shape="296.40,308.40 303.05,309.35 304.13,310.00"/>
    </edge>
    <edge id=":0_45" function="internal">
        <lane id=":0_45_0" index="0" speed="11.39" length="18.68" shape="307.39,310.00 312.60,312.20 316.65,316.95 318.00,323.60"/>
    </edge>
    <edge id=":0_46" function="internal">
        <lane id=":0_46_0" index="0" speed="10.88" length="17.57" shape="305.76,310.00 310.20,312.20 313.65,316.95 314.80,323.60"/>
    </edge>
    <edge id=":0_47" function="internal">
        <lane id=":0_47_0" index="0" speed="10.36" length="16.53" shape="304.13,310.00 307.80,312.20 310.65,316.95 311.60,323.60"/>
    </edge>
    <edge id=":1_0" function="internal">
        <lane id=":1_0_0" index="0" speed="19.44" length="0.10" shape="10.00,318.00 10.00,318.00"/>
        <lane id=":1_0_1" index="1" speed="19.44" length="0.10" shape="10.00,314.80 10.00,314.80"/>
        <lane id=":1_0_2" index="2" speed="19.44" length="0.10" shape="10.00,311.60 10.00,311.60"/>
    </edge>
    <edge id=":1_3" function="internal">
        <lane id=":1_3_0" index="0" speed="19.44" length="0.10" shape="10.00,302.00 10.00,302.00"/>
        <lane id=":1_3_1" index="1" speed="19.44" length="0.10" shape="10.00,305.20 10.00,305.20"/>
        <lane id=":1_3_2" index="2" speed="19.44" length="0.10" shape="10.00,308.40 10.00,308.40"/>
    </edge>
    <edge id=":2_0" function="internal">
        <lane id=":2_0_0" index="0" speed="19.44" length="0.10" shape="610.00,318.00 610.00,318.00"/>
        <lane id=":2_0_1" index="1" speed="19.44" length="0.10" shape="610.00,314.80 610.00,314.80"/>
        <lane id=":2_0_2" index="2" speed="19.44" length="0.10" shape="610.00,311.60 610.00,311.60"/>
    </edge>
    <edge id=":2_3" function="internal">
        <lane id=":2_3_0" index="0" speed="19.44" length="0.10" shape="610.00,302.00 610.00,302.00"/>
        <lane id=":2_3_1" index="1" speed="19.44" length="0.10" shape="610.00,305.20 610.00,305.20"/>
        <lane id=":2_3_2" index="2" speed="19.44" length="0.10" shape="610.00,308.40 610.00,308.40"/>
    </edge>
    <edge id=":3_0" function="internal">
        <lane id=":3_0_0" index="0" speed="19.44" length="0.10" shape="302.00,10.00 302.00,10.00"/>
        <lane id=":3_0_1" index="1" speed="19.44" length="0.10" shape="305.20,10.00 305.20,10.00"/>
        <lane id=":3_0_2" index="2" speed="19.44" length="0.10" shape="308.40,10.00 308.40,10.00"/>
    </edge>
    <edge id=":3_3" function="internal">
        <lane id=":3_3_0" index="0" speed="19.44" length="0.10" shape="318.00,10.00 318.00,10.00"/>
        <lane id=":3_3_1" index="1" speed="19.44" length="0.10" shape="314.80,10.00 314.80,10.00"/>
        <lane id=":3_3_2" index="2" speed="19.44" length="0.10" shape="311.60,10.00 311.60,10.00"/>
    </edge>
    <edge id=":4_0" function="internal">
        <lane id=":4_0_0" index="0" speed="19.44" length="0.10" shape="302.00,610.00 302.00,610.00"/>
        <lane id=":4_0_1" index="1" speed="19.44" length="0.10" shape="305.20,610.00 305.20,610.00"/>
        <lane id=":4_0_2" index="2" speed="19.44" length="0.10" shape="308.40,610.00 308.40,610.00"/>
    </edge>
    <edge id=":4_3" function="internal">
        <lane id=":4_3_0" index="0" speed="19.44" length="0.10" shape="318.00,610.00 318.00,610.00"/>
        <lane id=":4_3_1" index="1" speed="19.44" length="0.10" shape="314.80,610.00 314.80,610.00"/>
        <lane id=":4_3_2" index="2" speed="19.44" length="0.10" shape="311.60,610.00 311.60,610.00"/>
    </edge>
    <edge id=":51_0" function="internal">
        <lane id=":51_0_0" index="0" speed="3.65" length="4.67" shape="0.00,311.60 -1.20,310.80 -1.60,310.00 -1.20,309.20 0.00,308.40"/>
    </edge>
    <edge id=":52_0" function="internal">
        <lane id=":52_0_0" index="0" speed="3.65" length="4.67" shape="620.00,308.40 621.20,309.20 621.60,310.00 621.20,310.80 620.00,311.60"/>
    </edge>
    <edge id=":53_0" function="internal">
        <lane id=":53_0_0" index="0" speed="3.65" length="4.67" shape="308.40,0.00 309.20,-1.20 310.00,-1.60 310.80,-1.20 311.60,0.00"/>
    </edge>
    <edge id=":54_0" function="internal">
        <lane id=":54_0_0" index="0" speed="3.65" length="4.67" shape="311.60,620.00 310.80,621.20 310.00,621.60 309.20,621.20 308.40,620.00"/>
    </edge>

    <edge id="1i" from="1" to="0" priority="78">
        <lane id="1i_0" index="0" speed="19.44" length="286.40" shape="10.00,302.00 296.40,302.00"/>
        <lane id="1i_1" index="1" speed="19.44" length="286.40" shape="10.00,305.20 296.40,305.20"/>
        <lane id="1i_2" index="2" speed="19.44" length="286.40" shape="10.00,308.40 296.40,308.40"/>
    </edge>
    <edge id="1o" from="0" to="1" priority="46">
        <lane id="1o_0" index="0" speed="19.44" length="286.40" shape="296.40,318.00 10.00,318.00"/>
        <lane id="1o_1" index="1" speed="19.44" length="286.40" shape="296.40,314.80 10.00,314.80"/>
        <lane id="1o_2" index="2" speed="19.44" length="286.40" shape="296.40,311.60 10.00,311.60"/>
    </edge>
    <edge id="2i" from="2" to="0" priority="78">
        <lane id="2i_0" index="0" speed="19.44" length="286.40" shape="610.00,318.00 323.60,318.00"/>
        <lane id="2i_1" index="1" speed="19.44" length="286.40" shape="610.00,314.80 323.60,314.80"/>
        <lane id="2i_2" index="2" speed="19.44" length="286.40" shape="610.00,311.60 323.60,311.60"/>
    </edge>
    <edge id="2o" from="0" to="2" priority="46">
        <lane id="2o_0" index="0" speed="19.44" length="286.40" shape="323.60,302.00 610.00,302.00"/>
        <lane id="2o_1" index="1" speed="19.44" length="286.40" shape="323.60,305.20 610.00,305.20"/>
        <lane id="2o_2" index="2" speed="19.44" length="286.40" shape="323.60,308.40 610.00,308.40"/>
    </edge>
    <edge id="3i" from="3" to="0" priority="78">
        <lane id="3i_0" index="0" speed="19.44" length="286.40" shape="318.00,10.00 318.00,296.40"/>
        <lane id="3i_1" index="1" speed="19.44" length="286.40" shape="314.80,10.00 314.80,296.40"/>
        <lane id="3i_2" index="2" speed="19.44" length="286.40" shape="311.60,10.00 311.60,296.40"/>
    </edge>
    <edge id="3o" from="0" to="3" priority="46">
        <lane id="3o_0" index="0" speed="19.44" length="286.40" shape="302.00,296.40 302.00,10.00"/>
        <lane id="3o_1" index="1" speed="19.44" length="286.40" shape="305.20,296.40 305.20,10.00"/>
        <lane id="3o_2" index="2" speed="19.44" length="286.40" shape="308.40,296.40 308.40,10.00"/>
    </edge>
    <edge id="4i" from="4" to="0" priority="78">
        <lane id="4i_0" index="0" speed="19.44" length="286.40" shape="302.00,610.00 302.00,323.60"/>
        <lane id="4i_1" index="1" speed="19.44" length="286.40" shape="305.20,610.00 305.20,323.60"/>
        <lane id="4i_2" index="2" speed="19.44" length="286.40" shape="308.40,610.00 308.40,323.60"/>
    </edge>
    <edge id="4o" from="0" to="4" priority="46">
        <lane id="4o_0" index="0" speed="19.44" length="286.40" shape="318.00,323.60 318.00,610.00"/>
        <lane id="4o_1" index="1" speed="19.44" length="286.40" shape="314.80,323.60 314.80,610.00"/>
        <lane id="4o_2" index="2" speed="19.44" length="286.40" shape="311.60,323.60 311.60,610.00"/>
    </edge>
    <edge id="51i" from="1" to="51" priority="78">
        <lane id="51i_0" index="0" speed="19.44" length="10.00" shape="10.00,318.00 0.00,318.00"/>
        <lane id="51i_1" index="1" speed="19.44" length="10.00" shape="10.00,314.80 0.00,314.80"/>
        <lane id="51i_2" index="2" speed="19.44" length="10.00" shape="10.00,311.60 0.00,311.60"/>
    </edge>
    <edge id="51o" from="51" to="1" priority="46">
        <lane id="51o_0" index="0" speed="19.44" length="10.00" shape="0.00,302.00 10.00,302.00"/>
        <lane id="51o_1" index="1" speed="19.44" length="10.00" shape="0.00,305.20 10.00,305.20"/>
        <lane id="51o_2" index="2" speed="19.44" length="10.00" shape="0.00,308.40 10.00,308.40"/>
    </edge>
    <edge id="52i" from="2" to="52" priority="78">
        <lane id="52i_0" index="0" speed="19.44" length="10.00" shape="610.00,302.00 620.00,302.00"/>
        <lane id="52i_1" index="1" speed="19.44" length="10.00" shape="610.00,305.20 620.00,305.20"/>
        <lane id="52i_2" index="2" speed="19.44" length="10.00" shape="610.00,308.40 620.00,308.40"/>
    </edge>
    <edge id="52o" from="52" to="2" priority="46">
        <lane id="52o_0" index="0" speed="19.44" length="10.00" shape="620.00,318.00 610.00,318.00"/>
        <lane id="52o_1" index="1" speed="19.44" length="10.00" shape="620.00,314.80 610.00,314.80"/>
        <lane id="52o_2" index="2" speed="19.44" length="10.00" shape="620.00,311.60 610.00,311.60"/>
    </edge>
    <edge id="53i" from="3" to="53" priority="78">
        <lane id="53i_0" index="0" speed="19.44" length="10.00" shape="302.00,10.00 302.00,0.00"/>
        <lane id="53i_1" index="1" speed="19.44" length="10.00" shape="305.20,10.00 305.20,0.00"/>
        <lane id="53i_2" index="2" speed="19.44" length="10.00" shape="308.40,10.00 308.40,0.00"/>
    </edge>
    <edge id="53o" from="53" to="3" priority="46">
        <lane id="53o_0" index="0" speed="19.44" length="10.00" shape="318.00,0.00 318.00,10.00"/>
        <lane id="53o_1" index="1" speed="19.44" length="10.00" shape="314.80,0.00 314.80,10.00"/>
        <lane id="53o_2" index="2" speed="19.44" length="10.00" shape="311.60,0.00 311.60,10.00"/>
    </edge>
    <edge id="54i" from="4" to="54" priority="78">
        <lane id="54i_0" index="0" speed="19.44" length="10.00" shape="318.00,610.00 318.00,620.00"/>
        <lane id="54i_1" index="1" speed="19.44" length="10.00" shape="314.80,610.00 314.80,620.00"/>
        <lane id="54i_2" index="2" speed="19.44" length="10.00" shape="311.60,610.00 311.60,620.00"/>
    </edge>
    <edge id="54o" from="54" to="4" priority="46">
        <lane id="54o_0" index="0" speed="19.44" length="10.00" shape="302.00,620.00 302.00,610.00"/>
        <lane id="54o_1" index="1" speed="19.44" length="10.00" shape="305.20,620.00 305.20,610.00"/>
        <lane id="54o_2" index="2" speed="19.44" length="10.00" shape="308.40,620.00 308.40,610.00"/>
    </edge>

    <tlLogic id="0" type="static" programID="0" offset="0">
        <phase duration="1000" state="GGGGGGgggrrrrrrrrrGGGGGGgggrrrrrrrrr"/>
        <phase duration="5"  state="yyyyyyyyyrrrrrrrrryyyyyyyyyrrrrrrrrr"/>
        <phase duration="1000" state="rrrrrrrrrGGGGGGgggrrrrrrrrrGGGGGGggg"/>
        <phase duration="5"  state="rrrrrrrrryyyyyyyyyrrrrrrrrryyyyyyyyy"/>
    </tlLogic>

    <junction id="0" type="traffic_light" x="310.00" y="310.00" incLanes="4i_0 4i_1 4i_2 2i_0 2i_1 2i_2 3i_0 3i_1 3i_2 1i_0 1i_1 1i_2" intLanes=":0_0_0 :0_1_0 :0_2_0 :0_3_0 :0_3_1 :0_3_2 :0_36_0 :0_37_0 :0_38_0 :0_9_0 :0_10_0 :0_11_0 :0_12_0 :0_12_1 :0_12_2 :0_39_0 :0_40_0 :0_41_0 :0_18_0 :0_19_0 :0_20_0 :0_21_0 :0_21_1 :0_21_2 :0_42_0 :0_43_0 :0_44_0 :0_27_0 :0_28_0 :0_29_0 :0_30_0 :0_30_1 :0_30_2 :0_45_0 :0_46_0 :0_47_0" shape="300.40,323.60 319.60,323.60 320.04,321.38 320.60,320.60 321.38,320.04 322.38,319.71 323.60,319.60 323.60,300.40 321.38,299.96 320.60,299.40 320.04,298.62 319.71,297.62 319.60,296.40 300.40,296.40 299.96,298.62 299.40,299.40 298.62,299.96 297.62,300.29 296.40,300.40 296.40,319.60 298.62,320.04 299.40,320.60 299.96,321.38 300.29,322.38">
        <request index="0"  response="000000000000000000000000000000000000" foes="000000000111000000000111000000000000" cont="0"/>
        <request index="1"  response="000000000000000000000000000000000000" foes="000000000111000000000111000000000000" cont="0"/>
        <request index="2"  response="000000000000000000000000000000000000" foes="000000000111000000000111000000000000" cont="0"/>
        <request index="3"  response="111000000000000000111000000000000000" foes="111111111111000000111111000000000000" cont="0"/>
        <request index="4"  response="111000000000000000111000000000000000" foes="111111111111000000111111000000000000" cont="0"/>
        <request index="5"  response="111000000000000000111000000000000000" foes="111111111111000000111111000000000000" cont="0"/>
        <request index="6"  response="111000000000111111111000000000000000" foes="111111000000111111111111000000000000" cont="1"/>
        <request index="7"  response="111000000000111111111000000000000000" foes="111111000000111111111111000000000000" cont="1"/>
        <request index="8"  response="111000000000111111111000000000000000" foes="111111000000111111111111000000000000" cont="1"/>
        <request index="9"  response="000000000000111000000000000000000000" foes="111000000000111000000000000000000000" cont="0"/>
        <request index="10" response="000000000000111000000000000000000000" foes="111000000000111000000000000000000000" cont="0"/>
        <request index="11" response="000000000000111000000000000000000000" foes="111000000000111000000000000000000000" cont="0"/>
        <request index="12" response="000000000111111000000000000111111111" foes="111000000111111000000000000111111111" cont="0"/>
        <request index="13" response="000000000111111000000000000111111111" foes="111000000111111000000000000111111111" cont="0"/>
        <request index="14" response="000000000111111000000000000111111111" foes="111000000111111000000000000111111111" cont="0"/>
        <request index="15" response="000111111111111000000000000111111000" foes="000111111111111000000000000111111000" cont="1"/>
        <request index="16" response="000111111111111000000000000111111000" foes="000111111111111000000000000111111000" cont="1"/>
        <request index="17" response="000111111111111000000000000111111000" foes="000111111111111000000000000111111000" cont="1"/>
        <request index="18" response="000000000000000000000000000000000000" foes="000111000000000000000000000111000000" cont="0"/>
        <request index="19" response="000000000000000000000000000000000000" foes="000111000000000000000000000111000000" cont="0"/>
        <request index="20" response="000000000000000000000000000000000000" foes="000111000000000000000000000111000000" cont="0"/>
        <request index="21" response="111000000000000000111000000000000000" foes="111111000000000000111111111111000000" cont="0"/>
        <request index="22" response="111000000000000000111000000000000000" foes="111111000000000000111111111111000000" cont="0"/>
        <request index="23" response="111000000000000000111000000000000000" foes="111111000000000000111111111111000000" cont="0"/>
        <request index="24" response="111000000000000000111000000000111111" foes="111111000000000000111111000000111111" cont="1"/>
        <request index="25" response="111000000000000000111000000000111111" foes="111111000000000000111111000000111111" cont="1"/>
        <request index="26" response="111000000000000000111000000000111111" foes="111111000000000000111111000000111111" cont="1"/>
        <request index="27" response="000000000000000000000000000000111000" foes="000000000000000000111000000000111000" cont="0"/>
        <request index="28" response="000000000000000000000000000000111000" foes="000000000000000000111000000000111000" cont="0"/>
        <request index="29" response="000000000000000000000000000000111000" foes="000000000000000000111000000000111000" cont="0"/>
        <request index="30" response="000000000111111111000000000111111000" foes="000000000111111111111000000111111000" cont="0"/>
        <request index="31" response="000000000111111111000000000111111000" foes="000000000111111111111000000111111000" cont="0"/>
        <request index="32" response="000000000111111111000000000111111000" foes="000000000111111111111000000111111000" cont="0"/>
        <request index="33" response="000000000111111000000111111111111000" foes="000000000111111000000111111111111000" cont="1"/>
        <request index="34" response="000000000111111000000111111111111000" foes="000000000111111000000111111111111000" cont="1"/>
        <request index="35" response="000000000111111000000111111111111000" foes="000000000111111000000111111111111000" cont="1"/>
    </junction>
    <junction id="1" type="priority" x="10.00" y="310.00" incLanes="1o_0 1o_1 1o_2 51o_0 51o_1 51o_2" intLanes=":1_0_0 :1_0_1 :1_0_2 :1_3_0 :1_3_1 :1_3_2" shape="10.00,319.60 10.00,300.40 10.00,319.60">
        <request index="0" response="000000" foes="000000" cont="0"/>
        <request index="1" response="000000" foes="000000" cont="0"/>
        <request index="2" response="000000" foes="000000" cont="0"/>
        <request index="3" response="000000" foes="000000" cont="0"/>
        <request index="4" response="000000" foes="000000" cont="0"/>
        <request index="5" response="000000" foes="000000" cont="0"/>
    </junction>
    <junction id="2" type="priority" x="610.00" y="310.00" incLanes="52o_0 52o_1 52o_2 2o_0 2o_1 2o_2" intLanes=":2_0_0 :2_0_1 :2_0_2 :2_3_0 :2_3_1 :2_3_2" shape="610.00,319.60 610.00,300.40 610.00,319.60">
        <request index="0" response="000000" foes="000000" cont="0"/>
        <request index="1" response="000000" foes="000000" cont="0"/>
        <request index="2" response="000000" foes="000000" cont="0"/>
        <request index="3" response="000000" foes="000000" cont="0"/>
        <request index="4" response="000000" foes="000000" cont="0"/>
        <request index="5" response="000000" foes="000000" cont="0"/>
    </junction>
    <junction id="3" type="priority" x="310.00" y="10.00" incLanes="3o_0 3o_1 3o_2 53o_0 53o_1 53o_2" intLanes=":3_0_0 :3_0_1 :3_0_2 :3_3_0 :3_3_1 :3_3_2" shape="300.40,10.00 319.60,10.00 300.40,10.00">
        <request index="0" response="000000" foes="000000" cont="0"/>
        <request index="1" response="000000" foes="000000" cont="0"/>
        <request index="2" response="000000" foes="000000" cont="0"/>
        <request index="3" response="000000" foes="000000" cont="0"/>
        <request index="4" response="000000" foes="000000" cont="0"/>
        <request index="5" response="000000" foes="000000" cont="0"/>
    </junction>
    <junction id="4" type="priority" x="310.00" y="610.00" incLanes="54o_0 54o_1 54o_2 4o_0 4o_1 4o_2" intLanes=":4_0_0 :4_0_1 :4_0_2 :4_3_0 :4_3_1 :4_3_2" shape="300.40,610.00 319.60,610.00 300.40,610.00">
        <request index="0" response="000000" foes="000000" cont="0"/>
        <request index="1" response="000000" foes="000000" cont="0"/>
        <request index="2" response="000000" foes="000000" cont="0"/>
        <request index="3" response="000000" foes="000000" cont="0"/>
        <request index="4" response="000000" foes="000000" cont="0"/>
        <request index="5" response="000000" foes="000000" cont="0"/>
    </junction>
    <junction id="51" type="priority" x="0.00" y="310.00" incLanes="51i_0 51i_1 51i_2" intLanes=":51_0_0" shape="0.00,310.00 0.00,319.60 0.00,310.00">
        <request index="0" response="0" foes="0" cont="0"/>
    </junction>
    <junction id="52" type="priority" x="620.00" y="310.00" incLanes="52i_0 52i_1 52i_2" intLanes=":52_0_0" shape="620.00,310.00 620.00,300.40 620.00,310.00">
        <request index="0" response="0" foes="0" cont="0"/>
    </junction>
    <junction id="53" type="priority" x="310.00" y="0.00" incLanes="53i_0 53i_1 53i_2" intLanes=":53_0_0" shape="310.00,0.00 300.40,0.00 310.00,0.00">
        <request index="0" response="0" foes="0" cont="0"/>
    </junction>
    <junction id="54" type="priority" x="310.00" y="620.00" incLanes="54i_0 54i_1 54i_2" intLanes=":54_0_0" shape="310.00,620.00 319.60,620.00 310.00,620.00">
        <request index="0" response="0" foes="0" cont="0"/>
    </junction>

    <junction id=":0_36_0" type="internal" x="310.00" y="312.61" incLanes=":0_6_0 3i_0 3i_1 3i_2" intLanes=":0_12_0 :0_12_1 :0_12_2 :0_15_0 :0_16_0 :0_17_0 :0_18_0 :0_19_0 :0_20_0 :0_21_0 :0_21_1 :0_21_2 :0_30_0 :0_30_1 :0_30_2 :0_33_0 :0_34_0 :0_35_0"/>
    <junction id=":0_37_0" type="internal" x="310.00" y="314.24" incLanes=":0_7_0 3i_0 3i_1 3i_2" intLanes=":0_12_0 :0_12_1 :0_12_2 :0_15_0 :0_16_0 :0_17_0 :0_18_0 :0_19_0 :0_20_0 :0_21_0 :0_21_1 :0_21_2 :0_30_0 :0_30_1 :0_30_2 :0_33_0 :0_34_0 :0_35_0"/>
    <junction id=":0_38_0" type="internal" x="310.00" y="315.87" incLanes=":0_8_0 3i_0 3i_1 3i_2" intLanes=":0_12_0 :0_12_1 :0_12_2 :0_15_0 :0_16_0 :0_17_0 :0_18_0 :0_19_0 :0_20_0 :0_21_0 :0_21_1 :0_21_2 :0_30_0 :0_30_1 :0_30_2 :0_33_0 :0_34_0 :0_35_0"/>
    <junction id=":0_39_0" type="internal" x="312.61" y="310.00" incLanes=":0_15_0 1i_0 1i_1 1i_2" intLanes=":0_3_0 :0_3_1 :0_3_2 :0_6_0 :0_7_0 :0_8_0 :0_21_0 :0_21_1 :0_21_2 :0_24_0 :0_25_0 :0_26_0 :0_27_0 :0_28_0 :0_29_0 :0_30_0 :0_30_1 :0_30_2"/>
    <junction id=":0_40_0" type="internal" x="314.24" y="310.00" incLanes=":0_16_0 1i_0 1i_1 1i_2" intLanes=":0_3_0 :0_3_1 :0_3_2 :0_6_0 :0_7_0 :0_8_0 :0_21_0 :0_21_1 :0_21_2 :0_24_0 :0_25_0 :0_26_0 :0_27_0 :0_28_0 :0_29_0 :0_30_0 :0_30_1 :0_30_2"/>
    <junction id=":0_41_0" type="internal" x="315.87" y="310.00" incLanes=":0_17_0 1i_0 1i_1 1i_2" intLanes=":0_3_0 :0_3_1 :0_3_2 :0_6_0 :0_7_0 :0_8_0 :0_21_0 :0_21_1 :0_21_2 :0_24_0 :0_25_0 :0_26_0 :0_27_0 :0_28_0 :0_29_0 :0_30_0 :0_30_1 :0_30_2"/>
    <junction id=":0_42_0" type="internal" x="310.00" y="307.39" incLanes=":0_24_0 4i_0 4i_1 4i_2" intLanes=":0_0_0 :0_1_0 :0_2_0 :0_3_0 :0_3_1 :0_3_2 :0_12_0 :0_12_1 :0_12_2 :0_15_0 :0_16_0 :0_17_0 :0_30_0 :0_30_1 :0_30_2 :0_33_0 :0_34_0 :0_35_0"/>
    <junction id=":0_43_0" type="internal" x="310.00" y="305.76" incLanes=":0_25_0 4i_0 4i_1 4i_2" intLanes=":0_0_0 :0_1_0 :0_2_0 :0_3_0 :0_3_1 :0_3_2 :0_12_0 :0_12_1 :0_12_2 :0_15_0 :0_16_0 :0_17_0 :0_30_0 :0_30_1 :0_30_2 :0_33_0 :0_34_0 :0_35_0"/>