<?xml version="1.0" encoding="UTF-8"?>

<!-- generated on Wed Oct 30 02:15:25 2019 by Eclipse SUMO duarouter Version 1.2.0
<configuration xmlns:xsi="http://www.w3.org/2001/XMLSchema-instance" xsi:noNamespaceSchemaLocation="http://sumo.dlr.de/xsd/duarouterConfiguration.xsd">

    <input>
        <net-file value="networks/grid5.net.xml"/>
        <route-files value="demand/grid5-1.trip.xml"/>
    </input>

    <output>
        <output-file value="routes/grid5.rou.xml"/>
        <alternatives-output value="routes/grid5.rou.alt.xml"/>
    </output>

    <time>
        <begin value="4975.0"/>
        <end value="8000.0"/>
    </time>

    <report>
        <no-warnings value="true"/>
        <ignore-errors value="true"/>
        <no-step-log value="true"/>
    </report>

</configuration>
-->

<routes xmlns:xsi="http://www.w3.org/2001/XMLSchema-instance" xsi:noNamespaceSchemaLocation="http://sumo.dlr.de/xsd/routes_file.xsd">
    <vehicle id="0" depart="4975.00">
        <route edges="D2C2 C2D2 D2D1 D1D0 D0E0"/>
    </vehicle>
    <vehicle id="1" depart="4977.00">
        <route edges="C0C1 C1C2 C2B2 B2A2 A2A3 A3B3"/>
    </vehicle>
    <vehicle id="2" depart="4979.00">
        <route edges="E1E2 E2E1 E1D1 D1C1 C1B1 B1A1 A1B1"/>
    </vehicle>
    <vehicle id="3" depart="4981.00">
        <route edges="A1A2 A2A3 A3B3"/>
    </vehicle>
    <vehicle id="4" depart="4983.00">
        <route edges="B0A0 A0A1 A1A2 A2A3 A3A4 A4B4 B4C4 C4D4 D4E4"/>
    </vehicle>
    <vehicle id="5" depart="4985.00">
        <route edges="C2C1 C1D1 D1E1 E1E0 E0D0"/>
    </vehicle>
    <vehicle id="6" depart="4987.00">
        <route edges="C4C3 C3C2 C2C1 C1D1"/>
    </vehicle>
    <vehicle id="7" depart="4989.00">
        <route edges="D3C3 C3D3 D3E3 E3E2 E2E1"/>
    </vehicle>
    <vehicle id="8" depart="4991.00">
        <route edges="D3E3 E3E2 E2E1 E1D1 D1C1 C1B1 B1A1 A1B1"/>
    </vehicle>
    <vehicle id="9" depart="4993.00">
        <route edges="C1C2 C2C3 C3B3"/>
    </vehicle>
    <vehicle id="10" depart="4995.00">
        <route edges="A4B4 B4C4 C4D4 D4D3"/>
    </vehicle>
    <vehicle id="11" depart="4997.00">
        <route edges="B3A3 A3B3 B3C3 C3D3 D3E3 E3E2 E2E1 E1E0 E0D0"/>
    </vehicle>
    <vehicle id="12" depart="4999.00">
        <route edges="A3B3 B3C3 C3D3 D3E3 E3E2 E2E3"/>
    </vehicle>
    <vehicle id="13" depart="5001.00">
        <route edges="D1D0 D0C0 C0B0 B0A0 A0A1 A1A2 A2A3"/>
    </vehicle>
    <vehicle id="14" depart="5003.00">
        <route edges="C4B4 B4C4 C4D4 D4D3 D3D2 D2D1 D1D2"/>
    </vehicle>
    <vehicle id="15" depart="5005.00">
        <route edges="C3C2 C2C1 C1C0 C0B0 B0C0"/>
    </vehicle>
    <vehicle id="16" depart="5007.00">
        <route edges="D1D2 D2C2 C2B2 B2A2 A2A1"/>
    </vehicle>
    <vehicle id="17" depart="5009.00">
        <route edges="C1C2 C2D2 D2D1 D1D0 D0E0 E0E1"/>
    </vehicle>
    <vehicle id="18" depart="5011.00">
        <route edges="D1E1 E1D1 D1C1 C1B1 B1B0"/>
    </vehicle>
    <vehicle id="19" depart="5013.00">
        <route edges="E3E4 E4D4 D4C4 C4B4 B4C4"/>
    </vehicle>
    <vehicle id="20" depart="5015.00">
        <route edges="E4E3 E3D3 D3C3"/>
    </vehicle>
    <vehicle id="21" depart="5017.00">
        <route edges="C0C1 C1C2 C2B2 B2A2 A2A3 A3B3"/>
    </vehicle>
    <vehicle id="22" depart="5019.00">
        <route edges="E0E1 E1D1 D1C1 C1B1 B1B0"/>
    </vehicle>
    <vehicle id="23" depart="5021.00">
        <route edges="C4D4 D4E4"/>
    </vehicle>
    <vehicle id="24" depart="5023.00">
        <route edges="D1E1 E1E2 E2E3 E3D3"/>
    </vehicle>
    <vehicle id="25" depart="5025.00">
        <route edges="A0B0 B0B1 B1C1 C1D1 D1C1"/>
    </vehicle>
    <vehicle id="26" depart="5027.00">
        <route edges="C4B4 B4B3 B3A3"/>
    </vehicle>
    <vehicle id="27" depart="5029.00">
        <route edges="A3A4 A4B4 B4C4 C4C3 C3C2 C2C1 C1C0 C0D0"/>
    </vehicle>
    <vehicle id="28" depart="5031.00">
        <route edges="C4C3 C3B3 B3B4 B4A4 A4A3"/>
    </vehicle>
    <vehicle id="29" depart="5033.00">
        <route edges="A1B1 B1B2 B2B3 B3A3"/>
    </vehicle>
    <vehicle id="30" depart="5035.00">
        <route edges="B4A4 A4A3 A3A2 A2A1 A1A0 A0B0 B0C0 C0D0 D0C0"/>
    </vehicle>
    <vehicle id="31" depart="5037.00">
        <route edges="B2A2 A2A3 A3B3 B3C3 C3D3 D3D2"/>
    </vehicle>
    <vehicle id="32" depart="5039.00">
        <route edges="C4B4 B4B3 B3B2 B2B1"/>
    </vehicle>
    <vehicle id="33" depart="5041.00">
        <route edges="C2C3 C3D3 D3E3 E3E2 E2E3"/>
    </vehicle>
    <vehicle id="34" depart="5043.00">
        <route edges="A3B3 B3C3 C3D3 D3D2 D2D1"/>
    </vehicle>
    <vehicle id="35" depart="5045.00">
        <route edges="C2C1 C1C0 C0D0 D0E0"/>
    </vehicle>
    <vehicle id="36" depart="5047.00">
        <route edges="B2B1 B1B2 B2B3 B3B4 B4C4 C4D4 D4D3"/>
    </vehicle>
    <vehicle id="37" depart="5049.00">
        <route edges="C2D2 D2D1 D1D0 D0C0"/>
    </vehicle>
    <vehicle id="38" depart="5051.00">
        <route edges="B0B1 B1C1 C1D1 D1D0 D0E0"/>
    </vehicle>
    <vehicle id="39" depart="5053.00">
        <route edges="D1D0 D0C0 C0B0 B0A0 A0A1 A1A2 A2A1"/>
    </vehicle>
    <vehicle id="40" depart="5055.00">
        <route edges="C3D3 D3D2 D2D1 D1D0 D0D1"/>
    </vehicle>
    <vehicle id="41" depart="5057.00">
        <route edges="C1C0 C0C1 C1C2 C2C3 C3C4 C4C3"/>
    </vehicle>
    <vehicle id="42" depart="5059.00">
        <route edges="B3A3 A3B3 B3C3 C3D3 D3D2 D2D1 D1D2"/>
    </vehicle>
    <vehicle id="43" depart="5061.00">
        <route edges="C4B4 B4C4 C4D4 D4E4 E4E3 E3E2 E2E1 E1E2"/>
    </vehicle>
    <vehicle id="44" depart="5063.00">
        <route edges="C1C0 C0B0 B0B1 B1A1"/>
    </vehicle>
    <vehicle id="45" depart="5065.00">
        <route edges="C3D3 D3C3 C3B3 B3A3"/>
    </vehicle>
    <vehicle id="46" depart="5067.00">
        <route edges="D0E0 E0E1 E1E2 E2E3 E3D3 D3C3 C3B3 B3A3"/>
    </vehicle>
    <vehicle id="47" depart="5069.00">
        <route edges="D3D4 D4D3 D3D2 D2D1 D1D0 D0E0"/>
    </vehicle>
    <vehicle id="48" depart="5071.00">
        <route edges="C2C1 C1C0 C0D0 D0E0"/>
    </vehicle>
    <vehicle id="49" depart="5073.00">
        <route edges="C4D4 D4D3 D3D2 D2D1 D1D0 D0E0"/>
    </vehicle>
    <vehicle id="50" depart="5075.00">
        <route edges="B0A0 A0A1 A1B1 B1C1 C1D1"/>
    </vehicle>
    <vehicle id="51" depart="5077.00">
        <route edges="A2B2 B2B1 B1C1 C1D1"/>
    </vehicle>
    <vehicle id="52" depart="5079.00">
        <route edges="A1A0 A0B0 B0B1 B1B2 B2B3 B3C3 C3D3 D3D2"/>
    </vehicle>
    <vehicle id="53" depart="5081.00">
        <route edges="C0B0 B0C0 C0D0 D0E0"/>
    </vehicle>
    <vehicle id="54" depart="5083.00">
        <route edges="D1C1 C1C0 C0B0 B0A0 A0A1"/>
    </vehicle>
    <vehicle id="55" depart="5085.00">
        <route edges="B1B2 B2C2 C2C1 C1D1"/>
    </vehicle>
    <vehicle id="56" depart="5087.00">
        <route edges="C4B4 B4C4 C4D4 D4D3 D3D2 D2D1 D1D0 D0C0"/>
    </vehicle>
    <vehicle id="57" depart="5089.00">
        <route edges="C0C1 C1C2 C2C3 C3C4 C4B4 B4C4"/>
    </vehicle>
    <vehicle id="58" depart="5091.00">
        <route edges="B1B0 B0B1 B1B2 B2B3 B3C3 C3D3 D3E3"/>
    </vehicle>
    <vehicle id="59" depart="5093.00">
        <route edges="E3D3 D3E3 E3E2 E2E1 E1E0"/>
    </vehicle>
    <vehicle id="60" depart="5095.00">
        <route edges="A2A3 A3B3 B3C3 C3D3 D3E3 E3E2 E2E1 E1E0 E0D0"/>
    </vehicle>
    <vehicle id="61" depart="5097.00">
        <route edges="D1D0 D0C0 C0C1 C1C2 C2B2"/>
    </vehicle>
    <vehicle id="62" depart="5099.00">
        <route edges="C3C4 C4B4 B4B3 B3B2 B2B1"/>
    </vehicle>
    <vehicle id="63" depart="5101.00">
        <route edges="E3E4 E4D4 D4D3 D3C3 C3B3 B3C3"/>
    </vehicle>
    <vehicle id="64" depart="5103.00">
        <route edges="A3A2 A2A1 A1B1 B1C1 C1C0"/>
    </vehicle>
    <vehicle id="65" depart="5105.00">
        <route edges="B1C1 C1C0 C0D0 D0E0"/>
    </vehicle>
    <vehicle id="66" depart="5107.00">
        <route edges="C2B2 B2B1 B1B0 B0C0"/>
    </vehicle>
    <vehicle id="67" depart="5109.00">
        <route edges="C4B4 B4C4 C4D4 D4E4 E4E3 E3E2 E2D2"/>
    </vehicle>
    <vehicle id="68" depart="5111.00">
        <route edges="B3B2 B2B1 B1C1 C1D1 D1D0"/>
    </vehicle>
    <vehicle id="69" depart="5113.00">
        <route edges="C2B2 B2C2 C2D2 D2E2 E2E1 E1E0 E0D0"/>
    </vehicle>
    <vehicle id="70" depart="5115.00">
        <route edges="A2B2 B2B3 B3C3"/>
    </vehicle>
    <vehicle id="71" depart="5117.00">
        <route edges="A1A0 A0B0 B0C0 C0D0 D0E0 E0E1"/>
    </vehicle>
    <vehicle id="72" depart="5119.00">
        <route edges="A4B4 B4C4 C4D4 D4E4 E4E3 E3E4 E4D4"/>
    </vehicle>
    <vehicle id="73" depart="5121.00">
        <route edges="B0A0 A0A1 A1A2 A2A3 A3B3 B3A3"/>
    </vehicle>
    <vehicle id="74" depart="5123.00">
        <route edges="A0A1 A1A2 A2A3 A3A4 A4B4 B4C4 C4D4 D4E4"/>
    </vehicle>
    <vehicle id="75" depart="5125.00">
        <route edges="D2D1 D1C1 C1B1 B1A1"/>
    </vehicle>
    <vehicle id="76" depart="5127.00">
        <route edges="E3D3 D3C3 C3B3 B3B4"/>
    </vehicle>
    <vehicle id="77" depart="5129.00">
        <route edges="D3E3 E3E2 E2D2 D2C2 C2B2 B2B3"/>
    </vehicle>
    <vehicle id="78" depart="5131.00">
        <route edges="E0E1 E1D1 D1C1 C1B1 B1B2"/>
    </vehicle>
    <vehicle id="79" depart="5133.00">
        <route edges="B0A0 A0A1 A1A2 A2B2 B2C2 C2D2"/>
    </vehicle>
    <vehicle id="80" depart="5135.00">
        <route edges="A4B4 B4B3 B3B2 B2B1 B1B2"/>
    </vehicle>
    <vehicle id="81" depart="5137.00">
        <route edges="D4D3 D3C3 C3C4 C4B4"/>
    </vehicle>
    <vehicle id="82" depart="5139.00">
        <route edges="B0B1 B1B2 B2B3 B3C3 C3D3 D3E3"/>
    </vehicle>
    <vehicle id="83" depart="5141.00">
        <route edges="B1B2 B2B3 B3C3 C3D3 D3C3"/>
    </vehicle>
    <vehicle id="84" depart="5143.00">
        <route edges="A2A1 A1A2 A2A3 A3A4 A4B4 B4C4 C4B4"/>
    </vehicle>
    <vehicle id="85" depart="5145.00">
        <route edges="C1C2 C2C3 C3C4 C4B4 B4C4"/>
    </vehicle>
    <vehicle id="86" depart="5147.00">
        <route edges="B1B0 B0C0 C0D0 D0D1 D1D2 D2D3 D3D4 D4C4"/>
    </vehicle>
    <vehicle id="87" depart="5149.00">
        <route edges="D2E2 E2E1 E1E0 E0D0 D0C0 C0B0 B0A0"/>
    </vehicle>
    <vehicle id="88" depart="5151.00">
        <route edges="C0B0 B0B1 B1B2 B2B3 B3B4 B4A4"/>
    </vehicle>
    <vehicle id="89" depart="5153.00">
        <route edges="C2C1 C1C2 C2C3 C3D3 D3D4"/>
    </vehicle>
    <vehicle id="90" depart="5155.00">
        <route edges="B1C1 C1B1 B1A1 A1A2 A2A3 A3A4"/>
    </vehicle>
    <vehicle id="91" depart="5157.00">
        <route edges="D4D3 D3D2 D2D1 D1C1 C1B1 B1B2"/>
    </vehicle>
    <vehicle id="92" depart="5159.00">
        <route edges="D3E3 E3E2 E2E1 E1D1"/>
    </vehicle>
    <vehicle id="93" depart="5161.00">
        <route edges="E3E4 E4D4 D4C4 C4B4 B4A4 A4A3 A3A2 A2A1"/>
    </vehicle>
    <vehicle id="94" depart="5163.00">
        <route edges="D2C2 C2C3 C3C4 C4B4 B4A4 A4A3"/>
    </vehicle>
    <vehicle id="95" depart="5165.00">
        <route edges="E1E0 E0D0 D0C0 C0B0 B0B1 B1B2 B2B3 B3B4 B4C4"/>
    </vehicle>
    <vehicle id="96" depart="5167.00">
        <route edges="B2B1 B1C1 C1D1 D1D2"/>
    </vehicle>
    <vehicle id="97" depart="5169.00">
        <route edges="C0D0 D0C0 C0B0 B0A0 A0A1"/>
    </vehicle>
    <vehicle id="98" depart="5171.00">
        <route edges="C1D1 D1C1 C1B1 B1A1 A1A2"/>
    </vehicle>
    <vehicle id="99" depart="5173.00">
        <route edges="C1C2 C2C3 C3D3 D3E3 E3E4 E4D4"/>
    </vehicle>
    <vehicle id="100" depart="5175.00">
        <route edges="E4E3 E3E2 E2D2 D2C2 C2B2 B2C2"/>
    </vehicle>
    <vehicle id="101" depart="5177.00">
        <route edges="E2E1 E1D1 D1C1 C1B1 B1A1 A1B1"/>
    </vehicle>
    <vehicle id="102" depart="5179.00">
        <route edges="C2C3 C3C2 C2C1 C1C0 C0B0"/>
    </vehicle>
    <vehicle id="103" depart="5181.00">
        <route edges="E2D2 D2C2 C2B2 B2C2"/>
    </vehicle>
    <vehicle id="104" depart="5183.00">
        <route edges="B4B3 B3B2 B2B1 B1B0 B0C0 C0B0"/>
    </vehicle>
    <vehicle id="105" depart="5185.00">
        <route edges="E1D1 D1C1 C1B1 B1B2 B2B3 B3B2"/>
    </vehicle>
    <vehicle id="106" depart="5187.00">
        <route edges="D3C3 C3C2 C2B2 B2B3"/>
    </vehicle>
    <vehicle id="107" depart="5189.00">
        <route edges="C2D2 D2E2 E2E1 E1E0 E0D0"/>
    </vehicle>
    <vehicle id="108" depart="5191.00">
        <route edges="B4A4 A4A3 A3A2 A2A1 A1B1 B1C1 C1D1 D1E1"/>
    </vehicle>
    <vehicle id="109" depart="5193.00">
        <route edges="E0D0 D0D1 D1D2 D2D3 D3C3 C3B3 B3A3"/>
    </vehicle>
    <vehicle id="110" depart="5195.00">
        <route edges="C0B0 B0B1 B1B2 B2B3 B3C3 C3C2"/>
    </vehicle>
    <vehicle id="111" depart="5197.00">
        <route edges="B4A4 A4A3 A3A2 A2A1 A1A0 A0B0 B0C0"/>
    </vehicle>
    <vehicle id="112" depart="5199.00">
        <route edges="D4C4 C4D4 D4E4 E4E3 E3E2 E2E1"/>
    </vehicle>
    <vehicle id="113" depart="5201.00">
        <route edges="E4E3 E3E2 E2E1 E1D1 D1C1 C1B1"/>
    </vehicle>
    <vehicle id="114" depart="5203.00">
        <route edges="C0B0 B0B1 B1C1 C1D1 D1E1 E1E2 E2E3"/>
    </vehicle>
    <vehicle id="115" depart="5205.00">
        <route edges="A4B4 B4B3 B3B2 B2B1 B1A1"/>
    </vehicle>
    <vehicle id="116" depart="5207.00">
        <route edges="E2E1 E1D1 D1C1 C1B1 B1A1 A1A2"/>
    </vehicle>
    <vehicle id="117" depart="5209.00">
        <route edges="B3B4 B4C4 C4C3 C3C2 C2C1 C1C0"/>
    </vehicle>
    <vehicle id="118" depart="5211.00">
        <route edges="E0D0 D0D1 D1D2"/>
    </vehicle>
    <vehicle id="119" depart="5213.00">
        <route edges="C0C1 C1C0 C0B0 B0A0 A0A1"/>
    </vehicle>
    <vehicle id="120" depart="5215.00">
        <route edges="D4E4 E4E3 E3E2 E2E1 E1E0 E0D0 D0C0 C0B0 B0A0 A0A1"/>
    </vehicle>
    <vehicle id="121" depart="5217.00">
        <route edges="E3D3 D3C3 C3B3 B3B4"/>
    </vehicle>
    <vehicle id="122" depart="5219.00">
        <route edges="D4D3 D3D2 D2D1 D1D0 D0C0 C0D0"/>
    </vehicle>
    <vehicle id="123" depart="5221.00">
        <route edges="D1E1 E1D1 D1C1 C1B1 B1B2"/>
    </vehicle>
    <vehicle id="124" depart="5223.00">
        <route edges="D0D1 D1D2 D2C2 C2C3 C3C2"/>
    </vehicle>
    <vehicle id="125" depart="5225.00">
        <route edges="E3E2 E2E1 E1E0 E0D0 D0C0 C0B0 B0B1"/>
    </vehicle>
    <vehicle id="126" depart="5227.00">
        <route edges="C0C1 C1C2 C2B2 B2B3 B3B2"/>
    </vehicle>
    <vehicle id="127" depart="5229.00">
        <route edges="A0B0 B0C0 C0C1 C1C2"/>
    </vehicle>
    <vehicle id="128" depart="5231.00">
        <route edges="D1D2 D2D3"/>
    </vehicle>
    <vehicle id="129" depart="5233.00">
        <route edges="B2B1 B1B2 B2C2 C2D2 D2E2 E2D2"/>
    </vehicle>
    <vehicle id="130" depart="5235.00">
        <route edges="C3B3 B3A3 A3A2"/>
    </vehicle>
    <vehicle id="131" depart="5237.00">
        <route edges="C0B0 B0B1 B1B2 B2B3 B3C3 C3D3 D3D2"/>
    </vehicle>
    <vehicle id="132" depart="5239.00">
        <route edges="D1D0 D0C0 C0C1 C1C2 C2B2"/>
    </vehicle>
    <vehicle id="133" depart="5241.00">
        <route edges="B0B1 B1B2 B2B3 B3B4 B4C4"/>
    </vehicle>
    <vehicle id="134" depart="5243.00">
        <route edges="B4B3 B3C3 C3D3 D3E3 E3E2 E2D2"/>
    </vehicle>
    <vehicle id="135" depart="5245.00">
        <route edges="E2D2 D2C2 C2B2 B2B3 B3B4"/>
    </vehicle>
    <vehicle id="136" depart="5247.00">
        <route edges="B2B1 B1B2 B2B3 B3C3 C3D3 D3E3 E3E2"/>
    </vehicle>
    <vehicle id="137" depart="5249.00">
        <route edges="A3A2 A2A1 A1B1 B1B0"/>
    </vehicle>
    <vehicle id="138" depart="5251.00">
        <route edges="A4B4 B4B3 B3B2 B2B1 B1B0 B0B1"/>
    </vehicle>
    <vehicle id="139" depart="5253.00">
        <route edges="C2C1 C1B1 B1A1 A1A2 A2A1"/>
    </vehicle>
    <vehicle id="140" depart="5255.00">
        <route edges="E3D3 D3C3 C3B3 B3A3 A3A4"/>
    </vehicle>
    <vehicle id="141" depart="5257.00">
        <route edges="A2A1 A1A2 A2A3 A3A4 A4B4 B4C4 C4D4"/>
    </vehicle>
    <vehicle id="142" depart="5259.00">
        <route edges="A3A2 A2B2 B2C2 C2D2 D2E2 E2E3"/>
    </vehicle>
    <vehicle id="143" depart="5261.00">
        <route edges="B4C4 C4C3 C3C2 C2D2 D2E2"/>
    </vehicle>
    <vehicle id="144" depart="5263.00">
        <route edges="E4E3 E3E2 E2E1 E1E0 E0D0 D0E0 E0E1"/>
    </vehicle>
    <vehicle id="145" depart="5265.00">
        <route edges="D2E2 E2E1 E1E0 E0D0 D0C0"/>
    </vehicle>
    <vehicle id="146" depart="5267.00">
        <route edges="B4C4 C4D4 D4D3 D3D2 D2D1 D1D2"/>
    </vehicle>
    <vehicle id="147" depart="5269.00">
        <route edges="D4C4 C4C3 C3C2 C2C1 C1B1 B1B2"/>
    </vehicle>
    <vehicle id="148" depart="5271.00">
        <route edges="D4E4 E4E3 E3E2 E2E1 E1E2"/>
    </vehicle>
    <vehicle id="149" depart="5273.00">
        <route edges="A1B1 B1A1 A1A2 A2A3 A3A4"/>
    </vehicle>
    <vehicle id="150" depart="5275.00">
        <route edges="A1A2 A2B2 B2C2 C2D2 D2D3"/>
    </vehicle>
    <vehicle id="151" depart="5277.00">
        <route edges="B0C0 C0C1 C1C2"/>
    </vehicle>
    <vehicle id="152" depart="5279.00">
        <route edges="B0C0 C0D0 D0E0 E0E1 E1E2 E2E3 E3D3"/>
    </vehicle>
    <vehicle id="153" depart="5281.00">
        <route edges="B0B1 B1B2 B2C2 C2D2 D2E2 E2E1"/>
    </vehicle>
    <vehicle id="154" depart="5283.00">
        <route edges="C2B2 B2B3 B3B4 B4A4 A4A3"/>
    </vehicle>
    <vehicle id="155" depart="5285.00">
        <route edges="D2C2 C2C3 C3D3 D3E3 E3E4"/>
    </vehicle>
    <vehicle id="156" depart="5287.00">
        <route edges="D0D1 D1D2 D2D3 D3C3"/>
    </vehicle>
    <vehicle id="157" depart="5289.00">
        <route edges="D4C4 C4C3 C3C2 C2B2 B2A2"/>
    </vehicle>
    <vehicle id="158" depart="5291.00">
        <route edges="E3D3 D3D2 D2D1"/>
    </vehicle>
    <vehicle id="159" depart="5293.00">
        <route edges="A4B4 B4C4 C4D4 D4E4 E4E3 E3D3"/>
    </vehicle>
    <vehicle id="160" depart="5295.00">
        <route edges="B0C0 C0C1 C1D1"/>
    </vehicle>
    <vehicle id="161" depart="5297.00">
        <route edges="B2C2 C2B2 B2B3 B3B4"/>
    </vehicle>
    <vehicle id="162" depart="5299.00">
        <route edges="E0D0 D0C0 C0B0 B0A0 A0A1 A1A2 A2B2"/>
    </vehicle>
    <vehicle id="163" depart="5301.00">
        <route edges="E2E3 E3D3 D3C3 C3B3 B3A3 A3A2"/>
    </vehicle>
    <vehicle id="164" depart="5303.00">
        <route edges="A2A1 A1A2 A2B2 B2C2 C2D2 D2C2"/>
    </vehicle>
    <vehicle id="165" depart="5305.00">
        <route edges="D1E1 E1D1 D1C1 C1B1"/>
    </vehicle>
    <vehicle id="166" depart="5307.00">
        <route edges="D1D2 D2D3 D3C3 C3B3 B3A3 A3A2"/>
    </vehicle>
    <vehicle id="167" depart="5309.00">
        <route edges="E3E4 E4D4 D4D3 D3D2 D2D1 D1C1 C1B1 B1C1"/>
    </vehicle>
    <vehicle id="168" depart="5311.00">
        <route edges="D3D4 D4C4 C4B4 B4A4 A4A3 A3A2 A2A1 A1B1"/>
    </vehicle>
    <vehicle id="169" depart="5313.00">
        <route edges="A0A1 A1B1 B1C1 C1C0 C0D0"/>
    </vehicle>
    <vehicle id="170" depart="5315.00">
        <route edges="D1D0 D0C0 C0B0 B0B1 B1B2 B2B3 B3C3"/>
    </vehicle>
    <vehicle id="171" depart="5317.00">
        <route edges="B3A3 A3A4 A4B4 B4C4 C4D4 D4D3"/>
    </vehicle>
    <vehicle id="172" depart="5319.00">
        <route edges="A2B2 B2C2 C2D2 D2E2 E2E1 E1E0"/>
    </vehicle>
    <vehicle id="173" depart="5321.00">
        <route edges="D2E2 E2E3 E3E4 E4D4 D4C4 C4B4 B4B3"/>
    </vehicle>
    <vehicle id="174" depart="5323.00">
        <route edges="E4E3 E3E2 E2E1 E1D1 D1C1 C1B1 B1B2"/>
    </vehicle>
    <vehicle id="175" depart="5325.00">
        <route edges="B3C3 C3D3 D3E3 E3E2 E2E1"/>
    </vehicle>
    <vehicle id="176" depart="5327.00">
        <route edges="D2C2 C2C1 C1B1 B1A1"/>
    </vehicle>
    <vehicle id="177" depart="5329.00">
        <route edges="D1E1 E1D1 D1C1 C1B1 B1A1 A1B1"/>
    </vehicle>
    <vehicle id="178" depart="5331.00">
        <route edges="C3C4 C4D4 D4E4 E4E3 E3E2"/>
    </vehicle>
    <vehicle id="179" depart="5333.00">
        <route edges="B4A4 A4A3 A3B3 B3C3 C3C2 C2B2"/>
    </vehicle>
    <vehicle id="180" depart="5335.00">
        <route edges="A1B1 B1B2 B2C2 C2D2 D2E2"/>
    </vehicle>
    <vehicle id="181" depart="5337.00">
        <route edges="A0A1 A1A2 A2A3 A3B3 B3C3 C3C2"/>
    </vehicle>
    <vehicle id="182" depart="5339.00">
        <route edges="D4C4 C4C3 C3B3"/>
    </vehicle>
    <vehicle id="183" depart="5341.00">
        <route edges="C3C2 C2C1 C1D1 D1E1 E1E2"/>
    </vehicle>
    <vehicle id="184" depart="5343.00">
        <route edges="B2A2 A2A3 A3A4 A4B4 B4C4 C4D4"/>
    </vehicle>
    <vehicle id="185" depart="5345.00">
        <route edges="C4D4 D4D3 D3C3 C3B3 B3A3 A3A2 A2A1 A1A0 A0B0"/>
    </vehicle>
    <vehicle id="186" depart="5347.00">
        <route edges="E4E3 E3D3 D3C3 C3C2"/>
    </vehicle>
    <vehicle id="187" depart="5349.00">
        <route edges="A4A3 A3B3 B3C3 C3C2 C2C3"/>
    </vehicle>
    <vehicle id="188" depart="5351.00">
        <route edges="D0D1 D1D2 D2D3 D3C3 C3B3 B3A3"/>
    </vehicle>
    <vehicle id="189" depart="5353.00">
        <route edges="A1B1 B1B2 B2B3 B3C3"/>
    </vehicle>
    <vehicle id="190" depart="5355.00">
        <route edges="E3E4 E4D4 D4E4 E4E3 E3E2 E2E1 E1E0 E0D0"/>
    </vehicle>
    <vehicle id="191" depart="5357.00">
        <route edges="C3C4 C4B4 B4A4"/>
    </vehicle>
    <vehicle id="192" depart="5359.00">
        <route edges="D1E1 E1E2 E2E3 E3D3 D3C3 C3B3"/>
    </vehicle>
    <vehicle id="193" depart="5361.00">
        <route edges="B2B3 B3B2 B2B1 B1B0 B0C0"/>
    </vehicle>
    <vehicle id="194" depart="5363.00">
        <route edges="C1B1 B1B2 B2B3 B3C3 C3D3 D3E3 E3D3"/>
    </vehicle>
    <vehicle id="195" depart="5365.00">
        <route edges="A2A3 A3A4 A4B4 B4C4 C4D4 D4C4"/>
    </vehicle>
    <vehicle id="196" depart="5367.00">
        <route edges="D0C0 C0C1 C1C2 C2C3"/>
    </vehicle>
    <vehicle id="197" depart="5369.00">
        <route edges="B4C4 C4C3 C3B3 B3B2"/>
    </vehicle>
    <vehicle id="198" depart="5371.00">
        <route edges="E3E4 E4D4 D4E4 E4E3 E3E2 E2E1"/>
    </vehicle>
    <vehicle id="199" depart="5373.00">
        <route edges="B3B2 B2B1 B1C1 C1D1 D1E1 E1E2"/>
    </vehicle>
    <vehicle id="200" depart="5375.00">
        <route edges="E3E4 E4D4 D4E4 E4E3 E3E2 E2E1 E1E0"/>
    </vehicle>
    <vehicle id="201" depart="5377.00">
        <route edges="E1D1 D1C1 C1B1 B1B2 B2B3 B3B2"/>
    </vehicle>
    <vehicle id="202" depart="5379.00">
        <route edges="A1B1 B1C1 C1D1 D1E1 E1E0 E0D0"/>
    </vehicle>
    <vehicle id="203" depart="5381.00">
        <route edges="D3E3 E3E2 E2E1 E1D1 D1C1 C1B1 B1B2"/>
    </vehicle>
    <vehicle id="204" depart="5383.00">
        <route edges="D2C2 C2C1 C1C0 C0B0 B0B1"/>
    </vehicle>
    <vehicle id="205" depart="5385.00">
        <route edges="D4E4 E4E3 E3E2 E2E1 E1E0 E0D0 D0D1"/>
    </vehicle>
    <vehicle id="206" depart="5387.00">
        <route edges="D3D4 D4D3 D3C3 C3B3"/>
    </vehicle>
    <vehicle id="207" depart="5389.00">
        <route edges="C3C2 C2C1 C1C0 C0B0"/>
    </vehicle>
    <vehicle id="208" depart="5391.00">
        <route edges="A1A0 A0B0 B0C0 C0D0 D0E0 E0E1 E1E2"/>
    </vehicle>
    <vehicle id="209" depart="5393.00">
        <route edges="E0E1 E1E2 E2E3 E3E4 E4D4 D4C4 C4B4 B4C4"/>
    </vehicle>
    <vehicle id="210" depart="5395.00">
        <route edges="D2D3 D3D4 D4C4 C4B4 B4A4 A4A3"/>
    </vehicle>
    <vehicle id="211" depart="5397.00">
        <route edges="B2B1 B1B0 B0C0 C0D0 D0D1"/>
    </vehicle>
    <vehicle id="212" depart="5399.00">
        <route edges="A3A4 A4B4 B4B3 B3B2 B2B1 B1A1 A1A0 A0B0"/>
    </vehicle>
    <vehicle id="213" depart="5401.00">
        <route edges="E2D2 D2D3 D3D4 D4C4"/>
    </vehicle>
    <vehicle id="214" depart="5403.00">
        <route edges="A1B1 B1B0 B0C0 C0D0 D0E0 E0E1"/>
    </vehicle>
    <vehicle id="215" depart="5405.00">
        <route edges="B2A2 A2A3 A3B3 B3C3 C3D3 D3D2"/>
    </vehicle>
    <vehicle id="216" depart="5407.00">
        <route edges="D4E4 E4E3 E3D3 D3D4 D4C4 C4B4"/>
    </vehicle>
    <vehicle id="217" depart="5409.00">
        <route edges="E0D0 D0C0 C0C1 C1C2 C2C3 C3C4 C4C3"/>
    </vehicle>
    <vehicle id="218" depart="5411.00">
        <route edges="C3C2 C2D2 D2E2 E2E1"/>
    </vehicle>
    <vehicle id="219" depart="5413.00">
        <route edges="A2A1 A1A0 A0B0 B0C0 C0D0"/>
    </vehicle>
    <vehicle id="220" depart="5415.00">
        <route edges="A2A1 A1A0 A0B0 B0C0 C0B0"/>
    </vehicle>
    <vehicle id="221" depart="5417.00">
        <route edges="D1D2 D2D3 D3C3 C3B3 B3A3"/>
    </vehicle>
    <vehicle id="222" depart="5419.00">
        <route edges="B3B4 B4C4 C4D4 D4E4 E4E3 E3E2 E2E1 E1E0 E0D0"/>
    </vehicle>
    <vehicle id="223" depart="5421.00">
        <route edges="E0D0 D0C0 C0B0 B0B1 B1B2 B2C2"/>
    </vehicle>
    <vehicle id="224" depart="5423.00">
        <route edges="D1D2 D2D1 D1C1 C1B1 B1A1 A1A0"/>
    </vehicle>
    <vehicle id="225" depart="5425.00">
        <route edges="D3D2 D2C2 C2B2 B2A2 A2B2"/>
    </vehicle>
    <vehicle id="226" depart="5427.00">
        <route edges="C2C3 C3C4 C4D4 D4E4 E4E3"/>
    </vehicle>
    <vehicle id="227" depart="5429.00">
        <route edges="A3A4 A4B4 B4C4 C4D4 D4E4 E4E3 E3E4 E4D4"/>
    </vehicle>
    <vehicle id="228" depart="5431.00">
        <route edges="D2D3 D3D2 D2C2 C2B2 B2A2 A2A1"/>
    </vehicle>
    <vehicle id="229" depart="5433.00">
        <route edges="E3E2 E2D2 D2C2 C2B2 B2B3 B3B4"/>
    </vehicle>
    <vehicle id="230" depart="5435.00">
        <route edges="D4D3 D3E3 E3E2"/>
    </vehicle>
    <vehicle id="231" depart="5437.00">
        <route edges="D2E2 E2E1 E1D1 D1C1 C1B1 B1A1 A1B1"/>
    </vehicle>
    <vehicle id="232" depart="5439.00">
        <route edges="A1A0 A0B0 B0B1 B1B2 B2C2 C2D2 D2C2"/>
    </vehicle>
    <vehicle id="233" depart="5441.00">
        <route edges="D3E3 E3E2 E2E1 E1E0"/>
    </vehicle>
    <vehicle id="234" depart="5443.00">
        <route edges="E4D4 D4C4 C4C3 C3C2 C2B2"/>
    </vehicle>
    <vehicle id="235" depart="5445.00">
        <route edges="E3E2 E2E1 E1E0 E0D0"/>
    </vehicle>
    <vehicle id="236" depart="5447.00">
        <route edges="E4D4 D4D3 D3D2 D2D1 D1C1"/>
    </vehicle>
    <vehicle id="237" depart="5449.00">
        <route edges="B2A2 A2B2 B2C2 C2D2 D2D1"/>
    </vehicle>
    <vehicle id="238" depart="5451.00">
        <route edges="D3C3 C3B3 B3B4 B4B3"/>
    </vehicle>
    <vehicle id="239" depart="5453.00">
        <route edges="D0E0 E0E1 E1E2 E2E3 E3E4"/>
    </vehicle>
    <vehicle id="240" depart="5455.00">
        <route edges="C1B1 B1B2 B2C2 C2D2 D2E2 E2E3 E3E4 E4D4"/>
    </vehicle>
    <vehicle id="241" depart="5457.00">
        <route edges="A0A1 A1B1 B1C1 C1D1 D1E1"/>
    </vehicle>
    <vehicle id="242" depart="5459.00">
        <route edges="D4C4 C4D4 D4E4 E4E3 E3E2 E2E1 E1D1"/>
    </vehicle>
    <vehicle id="243" depart="5461.00">
        <route edges="A1A0 A0B0 B0C0 C0C1 C1C2 C2C3 C3C4"/>
    </vehicle>
    <vehicle id="244" depart="5463.00">
        <route edges="E3E2 E2D2 D2C2 C2B2 B2A2 A2A3 A3A2"/>
    </vehicle>
    <vehicle id="245" depart="5465.00">
        <route edges="B1A1 A1A2 A2B2 B2C2 C2D2 D2E2 E2D2"/>
    </vehicle>
    <vehicle id="246" depart="5467.00">
        <route edges="E3D3 D3D2 D2C2 C2B2 B2B3"/>
    </vehicle>
    <vehicle id="247" depart="5469.00">
        <route edges="D2D3 D3D2 D2C2 C2B2 B2B1"/>
    </vehicle>
    <vehicle id="248" depart="5471.00">
        <route edges="C1C2 C2C3 C3B3 B3A3 A3A4"/>
    </vehicle>
    <vehicle id="249" depart="5473.00">
        <route edges="E2D2 D2C2 C2B2 B2B1 B1B0 B0C0"/>
    </vehicle>
    <vehicle id="250" depart="5475.00">
        <route edges="A1A0 A0B0 B0A0 A0A1 A1A2 A2A3"/>
    </vehicle>
    <vehicle id="251" depart="5477.00">
        <route edges="D0C0 C0C1 C1C2 C2B2 B2A2"/>
    </vehicle>
    <vehicle id="252" depart="5479.00">
        <route edges="E2D2 D2C2 C2C3 C3C4"/>
    </vehicle>
    <vehicle id="253" depart="5481.00">
        <route edges="D3E3 E3D3 D3C3 C3B3 B3A3 A3A4"/>
    </vehicle>
    <vehicle id="254" depart="5483.00">
        <route edges="C0B0 B0C0 C0D0 D0E0 E0E1"/>
    </vehicle>
    <vehicle id="255" depart="5485.00">
        <route edges="C1B1 B1B2 B2A2"/>
    </vehicle>
    <vehicle id="256" depart="5487.00">
        <route edges="C1B1 B1A1"/>
    </vehicle>
    <vehicle id="257" depart="5489.00">
        <route edges="A1A2 A2A3 A3A4 A4B4 B4C4"/>
    </vehicle>
    <vehicle id="258" depart="5491.00">
        <route edges="B0B1 B1B2 B2C2 C2D2 D2E2 E2D2"/>
    </vehicle>
    <vehicle id="259" depart="5493.00">
        <route edges="A4A3 A3A4 A4B4 B4C4 C4D4 D4D3"/>
    </vehicle>
    <vehicle id="260" depart="5495.00">
        <route edges="C1B1 B1B2 B2B3 B3C3 C3D3 D3E3 E3D3"/>
    </vehicle>
    <vehicle id="261" depart="5497.00">
        <route edges="B1C1 C1B1 B1B2 B2B3 B3B4 B4A4 A4A3"/>
    </vehicle>
    <vehicle id="262" depart="5499.00">
        <route edges="D1C1 C1C2 C2C3 C3D3 D3E3"/>
    </vehicle>
    <vehicle id="263" depart="5501.00">
        <route edges="C3B3 B3C3 C3D3 D3D2 D2D1 D1D0 D0D1"/>
    </vehicle>
    <vehicle id="264" depart="5503.00">
        <route edges="D1C1 C1C2 C2D2 D2E2 E2E3"/>
    </vehicle>
    <vehicle id="265" depart="5505.00">
        <route edges="A3A2 A2A3 A3A4 A4B4 B4C4 C4C3"/>
    </vehicle>
    <vehicle id="266" depart="5507.00">
        <route edges="C3B3 B3C3 C3D3 D3E3"/>
    </vehicle>
    <vehicle id="267" depart="5509.00">
        <route edges="C3B3 B3C3 C3D3 D3E3"/>
    </vehicle>
    <vehicle id="268" depart="5511.00">
        <route edges="E0D0 D0C0 C0B0 B0A0 A0A1 A1A2 A2A3"/>
    </vehicle>
    <vehicle id="269" depart="5513.00">
        <route edges="B2B3 B3C3 C3D3 D3E3 E3E2 E2E1 E1D1"/>
    </vehicle>
    <vehicle id="270" depart="5515.00">