<?xml version="1.0" encoding="UTF-8"?>

<!-- generated on Mon Nov  4 19:05:42 2019 by Eclipse SUMO duarouter Version 1.2.0
<configuration xmlns:xsi="http://www.w3.org/2001/XMLSchema-instance" xsi:noNamespaceSchemaLocation="http://sumo.dlr.de/xsd/duarouterConfiguration.xsd">

    <input>
        <net-file value="networks/isolated_3_lanes_4_stages.net.xml"/>
        <route-files value="demand/isolated_3_lanes_hp_tuning.trip.xml"/>
    </input>

    <output>
        <output-file value="routes/isolated_3_lanes_hp_tuning.rou.xml"/>
        <alternatives-output value="routes/isolated_3_lanes_hp_tuning.rou.alt.xml"/>
    </output>

</configuration>
-->

<routes xmlns:xsi="http://www.w3.org/2001/XMLSchema-instance" xsi:noNamespaceSchemaLocation="http://sumo.dlr.de/xsd/routes_file.xsd">
    <vehicle id="1_0" depart="0.00">
        <route edges="54o 4i 1o 51i"/>
    </vehicle>
    <vehicle id="1_1" depart="15.00">
        <route edges="53o 3i 4o 54i"/>
    </vehicle>
    <vehicle id="1_2" depart="30.00">
        <route edges="51o 1i 4o 54i"/>
    </vehicle>
    <vehicle id="1_3" depart="45.00">
        <route edges="53o 3i 2o 52i"/>
    </vehicle>
    <vehicle id="1_4" depart="60.00">
        <route edges="51o 1i 2o 52i"/>
    </vehicle>
    <vehicle id="1_5" depart="75.00">
        <route edges="52o 2i 4o 54i"/>
    </vehicle>
    <vehicle id="1_6" depart="90.00">
        <route edges="53o 3i 4o 54i"/>
    </vehicle>
    <vehicle id="1_7" depart="105.00">
        <route edges="51o 1i 3o 53i"/>
    </vehicle>
    <vehicle id="1_8" depart="120.00">
        <route edges="53o 3i 2o 52i"/>
    </vehicle>
    <vehicle id="1_9" depart="135.00">
        <route edges="52o 2i 1o 51i"/>
    </vehicle>
    <vehicle id="1_10" depart="150.00">
        <route edges="53o 3i 2o 52i"/>
    </vehicle>
    <vehicle id="1_11" depart="165.00">
        <route edges="54o 4i 3o 53i"/>
    </vehicle>
    <vehicle id="1_12" depart="180.00">
        <route edges="51o 1i 2o 52i"/>
    </vehicle>
    <vehicle id="1_13" depart="195.00">
        <route edges="51o 1i 3o 53i"/>
    </vehicle>
    <vehicle id="1_14" depart="210.00">
        <route edges="52o 2i 4o 54i"/>
    </vehicle>
    <vehicle id="1_15" depart="225.00">
        <route edges="53o 3i 4o 54i"/>
    </vehicle>
    <vehicle id="1_16" depart="240.00">
        <route edges="51o 1i 4o 54i"/>
    </vehicle>
    <vehicle id="1_17" depart="255.00">
        <route edges="54o 4i 1o 51i"/>
    </vehicle>
    <vehicle id="1_18" depart="270.00">
        <route edges="53o 3i 4o 54i"/>
    </vehicle>
    <vehicle id="1_19" depart="285.00">
        <route edges="53o 3i 2o 52i"/>
    </vehicle>
    <vehicle id="1_20" depart="300.00">
        <route edges="52o 2i 4o 54i"/>
    </vehicle>
    <vehicle id="1_21" depart="315.00">
        <route edges="52o 2i 4o 54i"/>
    </vehicle>
    <vehicle id="1_22" depart="330.00">
        <route edges="54o 4i 3o 53i"/>
    </vehicle>
    <vehicle id="1_23" depart="345.00">
        <route edges="54o 4i 1o 51i"/>
    </vehicle>
    <vehicle id="1_24" depart="360.00">
        <route edges="52o 2i 4o 54i"/>
    </vehicle>
    <vehicle id="1_25" depart="375.00">
        <route edges="53o 3i 2o 52i"/>
    </vehicle>
    <vehicle id="1_26" depart="390.00">
        <route edges="52o 2i 3o 53i"/>
    </vehicle>
    <vehicle id="1_27" depart="405.00">
        <route edges="53o 3i 4o 54i"/>
    </vehicle>
    <vehicle id="1_28" depart="420.00">
        <route edges="54o 4i 2o 52i"/>
    </vehicle>
    <vehicle id="1_29" depart="435.00">
        <route edges="51o 1i 3o 53i"/>
    </vehicle>
    <vehicle id="1_30" depart="450.00">
        <route edges="54o 4i 2o 52i"/>
    </vehicle>
    <vehicle id="1_31" depart="465.00">
        <route edges="51o 1i 4o 54i"/>
    </vehicle>
    <vehicle id="1_32" depart="480.00">
        <route edges="54o 4i 1o 51i"/>
    </vehicle>
    <vehicle id="1_33" depart="495.00">
        <route edges="52o 2i 1o 51i"/>
    </vehicle>
    <vehicle id="1_34" depart="510.00">
        <route edges="53o 3i 1o 51i"/>
    </vehicle>
    <vehicle id="1_35" depart="525.00">
        <route edges="52o 2i 4o 54i"/>
    </vehicle>
    <vehicle id="1_36" depart="540.00">
        <route edges="53o 3i 1o 51i"/>
    </vehicle>
    <vehicle id="1_37" depart="555.00">
        <route edges="52o 2i 1o 51i"/>
    </vehicle>
    <vehicle id="1_38" depart="570.00">
        <route edges="54o 4i 3o 53i"/>
    </vehicle>
    <vehicle id="1_39" depart="585.00">
        <route edges="54o 4i 3o 53i"/>
    </vehicle>
    <vehicle id="1_40" depart="600.00">
        <route edges="52o 2i 4o 54i"/>
    </vehicle>
    <vehicle id="1_41" depart="615.00">
        <route edges="54o 4i 1o 51i"/>
    </vehicle>
    <vehicle id="1_42" depart="630.00">
        <route edges="53o 3i 4o 54i"/>
    </vehicle>
    <vehicle id="1_43" depart="645.00">
        <route edges="52o 2i 4o 54i"/>
    </vehicle>
    <vehicle id="1_44" depart="660.00">
        <route edges="53o 3i 2o 52i"/>
    </vehicle>
    <vehicle id="1_45" depart="675.00">
        <route edges="52o 2i 4o 54i"/>
    </vehicle>
    <vehicle id="1_46" depart="690.00">
        <route edges="52o 2i 1o 51i"/>
    </vehicle>
    <vehicle id="1_47" depart="705.00">
        <route edges="53o 3i 2o 52i"/>
    </vehicle>
    <vehicle id="1_48" depart="720.00">
        <route edges="53o 3i 1o 51i"/>
    </vehicle>
    <vehicle id="1_49" depart="735.00">
        <route edges="53o 3i 2o 52i"/>
    </vehicle>
    <vehicle id="1_50" depart="750.00">
        <route edges="52o 2i 3o 53i"/>
    </vehicle>
    <vehicle id="1_51" depart="765.00">
        <route edges="52o 2i 1o 51i"/>
    </vehicle>
    <vehicle id="1_52" depart="780.00">
        <route edges="51o 1i 4o 54i"/>
    </vehicle>
    <vehicle id="1_53" depart="795.00">
        <route edges="52o 2i 4o 54i"/>
    </vehicle>
    <vehicle id="1_54" depart="810.00">
        <route edges="53o 3i 2o 52i"/>
    </vehicle>
    <vehicle id="1_55" depart="825.00">
        <route edges="51o 1i 4o 54i"/>
    </vehicle>
    <vehicle id="1_56" depart="840.00">
        <route edges="54o 4i 1o 51i"/>
    </vehicle>
    <vehicle id="1_57" depart="855.00">
        <route edges="52o 2i 3o 53i"/>
    </vehicle>
    <vehicle id="1_58" depart="870.00">
        <route edges="54o 4i 3o 53i"/>
    </vehicle>
    <vehicle id="1_59" depart="885.00">
        <route edges="52o 2i 4o 54i"/>
    </vehicle>
    <vehicle id="1_60" depart="900.00">
        <route edges="51o 1i 2o 52i"/>
    </vehicle>
    <vehicle id="1_61" depart="915.00">
        <route edges="53o 3i 4o 54i"/>
    </vehicle>
    <vehicle id="1_62" depart="930.00">
        <route edges="51o 1i 3o 53i"/>
    </vehicle>
    <vehicle id="1_63" depart="945.00">
        <route edges="51o 1i 2o 52i"/>
    </vehicle>
    <vehicle id="1_64" depart="960.00">
        <route edges="52o 2i 1o 51i"/>
    </vehicle>
    <vehicle id="1_65" depart="975.00">
        <route edges="53o 3i 2o 52i"/>
    </vehicle>
    <vehicle id="1_66" depart="990.00">
        <route edges="53o 3i 1o 51i"/>
    </vehicle>
    <vehicle id="1_67" depart="1005.00">
        <route edges="53o 3i 1o 51i"/>
    </vehicle>
    <vehicle id="1_68" depart="1020.00">
        <route edges="54o 4i 2o 52i"/>
    </vehicle>
    <vehicle id="1_69" depart="1035.00">
        <route edges="52o 2i 4o 54i"/>
    </vehicle>
    <vehicle id="1_70" depart="1050.00">
        <route edges="53o 3i 2o 52i"/>
    </vehicle>
    <vehicle id="1_71" depart="1065.00">
        <route edges="54o 4i 1o 51i"/>
    </vehicle>
    <vehicle id="1_72" depart="1080.00">
        <route edges="53o 3i 2o 52i"/>
    </vehicle>
    <vehicle id="1_73" depart="1095.00">
        <route edges="53o 3i 2o 52i"/>
    </vehicle>
    <vehicle id="1_74" depart="1110.00">
        <route edges="52o 2i 3o 53i"/>
    </vehicle>
    <vehicle id="1_75" depart="1125.00">
        <route edges="54o 4i 1o 51i"/>
    </vehicle>
    <vehicle id="1_76" depart="1140.00">
        <route edges="53o 3i 4o 54i"/>
    </vehicle>
    <vehicle id="1_77" depart="1155.00">
        <route edges="52o 2i 1o 51i"/>
    </vehicle>
    <vehicle id="1_78" depart="1170.00">
        <route edges="52o 2i 1o 51i"/>
    </vehicle>
    <vehicle id="1_79" depart="1185.00">
        <route edges="51o 1i 3o 53i"/>
    </vehicle>
    <vehicle id="1_80" depart="1200.00">
        <route edges="54o 4i 3o 53i"/>
    </vehicle>
    <vehicle id="1_81" depart="1215.00">
        <route edges="52o 2i 1o 51i"/>
    </vehicle>
    <vehicle id="1_82" depart="1230.00">
        <route edges="52o 2i 3o 53i"/>
    </vehicle>
    <vehicle id="1_83" depart="1245.00">
        <route edges="52o 2i 1o 51i"/>
    </vehicle>
    <vehicle id="1_84" depart="1260.00">
        <route edges="53o 3i 2o 52i"/>
    </vehicle>
    <vehicle id="1_85" depart="1275.00">
        <route edges="52o 2i 4o 54i"/>
    </vehicle>
    <vehicle id="1_86" depart="1290.00">
        <route edges="54o 4i 1o 51i"/>
    </vehicle>
    <vehicle id="1_87" depart="1305.00">
        <route edges="51o 1i 2o 52i"/>
    </vehicle>
    <vehicle id="1_88" depart="1320.00">
        <route edges="52o 2i 4o 54i"/>
    </vehicle>
    <vehicle id="1_89" depart="1335.00">
        <route edges="52o 2i 3o 53i"/>
    </vehicle>
    <vehicle id="1_90" depart="1350.00">
        <route edges="51o 1i 4o 54i"/>
    </vehicle>
    <vehicle id="1_91" depart="1365.00">
        <route edges="53o 3i 4o 54i"/>
    </vehicle>
    <vehicle id="1_92" depart="1380.00">
        <route edges="53o 3i 2o"/>
    </vehicle>
    <vehicle id="1_93" depart="1395.00">
        <route edges="52o 2i 3o 53i"/>
    </vehicle>
    <vehicle id="1_94" depart="1410.00">
        <route edges="53o 3i 4o 54i"/>
    </vehicle>
    <vehicle id="1_95" depart="1425.00">
        <route edges="53o 3i 1o 51i"/>
    </vehicle>
    <vehicle id="1_96" depart="1440.00">
        <route edges="52o 2i 3o 53i"/>
    </vehicle>
    <vehicle id="1_97" depart="1455.00">
        <route edges="53o 3i 2o 52i"/>
    </vehicle>
    <vehicle id="1_98" depart="1470.00">
        <route edges="52o 2i 1o 51i"/>
    </vehicle>
    <vehicle id="1_99" depart="1485.00">
        <route edges="53o 3i 1o 51i"/>
    </vehicle>
    <vehicle id="1_100" depart="1500.00">
        <route edges="51o 1i 4o 54i"/>
    </vehicle>
    <vehicle id="1_101" depart="1515.00">
        <route edges="51o 1i 4o 54i"/>
    </vehicle>
    <vehicle id="1_102" depart="1530.00">
        <route edges="53o 3i 2o 52i"/>
    </vehicle>
    <vehicle id="1_103" depart="1545.00">
        <route edges="51o 1i 3o 53i"/>
    </vehicle>
    <vehicle id="1_104" depart="1560.00">
        <route edges="52o 2i 4o 54i"/>
    </vehicle>
    <vehicle id="1_105" depart="1575.00">
        <route edges="54o 4i 3o 53i"/>
    </vehicle>
    <vehicle id="1_106" depart="1590.00">
        <route edges="54o 4i 1o 51i"/>
    </vehicle>
    <vehicle id="1_107" depart="1605.00">
        <route edges="52o 2i 1o 51i"/>
    </vehicle>
    <vehicle id="1_108" depart="1620.00">
        <route edges="51o 1i 3o 53i"/>
    </vehicle>
    <vehicle id="1_109" depart="1635.00">
        <route edges="51o 1i 2o 52i"/>
    </vehicle>
    <vehicle id="1_110" depart="1650.00">
        <route edges="53o 3i 2o 52i"/>
    </vehicle>
    <vehicle id="1_111" depart="1665.00">
        <route edges="51o 1i 2o 52i"/>
    </vehicle>
    <vehicle id="1_112" depart="1680.00">
        <route edges="53o 3i 4o 54i"/>
    </vehicle>
    <vehicle id="1_113" depart="1695.00">
        <route edges="51o 1i 4o 54i"/>
    </vehicle>
    <vehicle id="1_114" depart="1710.00">
        <route edges="54o 4i 1o 51i"/>
    </vehicle>
    <vehicle id="1_115" depart="1725.00">
        <route edges="51o 1i 3o 53i"/>
    </vehicle>
    <vehicle id="1_116" depart="1740.00">
        <route edges="51o 1i 4o 54i"/>
    </vehicle>
    <vehicle id="1_117" depart="1755.00">
        <route edges="53o 3i 1o 51i"/>
    </vehicle>
    <vehicle id="1_118" depart="1770.00">
        <route edges="51o 1i 3o 53i"/>
    </vehicle>
    <vehicle id="1_119" depart="1785.00">
        <route edges="52o 2i 4o 54i"/>
    </vehicle>
    <vehicle id="1_120" depart="1800.00">
        <route edges="51o 1i 4o 54i"/>
    </vehicle>
    <vehicle id="1_121" depart="1815.00">
        <route edges="54o 4i 1o 51i"/>
    </vehicle>
    <vehicle id="1_122" depart="1830.00">
        <route edges="53o 3i 2o 52i"/>
    </vehicle>
    <vehicle id="1_123" depart="1845.00">
        <route edges="53o 3i 2o 52i"/>
    </vehicle>
    <vehicle id="1_124" depart="1860.00">
        <route edges="51o 1i 4o 54i"/>
    </vehicle>
    <vehicle id="1_125" depart="1875.00">
        <route edges="54o 4i 2o 52i"/>
    </vehicle>
    <vehicle id="1_126" depart="1890.00">
        <route edges="51o 1i 4o 54i"/>
    </vehicle>
    <vehicle id="1_127" depart="1905.00">
        <route edges="51o 1i 4o 54i"/>
    </vehicle>
    <vehicle id="1_128" depart="1920.00">
        <route edges="52o 2i 3o 53i"/>
    </vehicle>
    <vehicle id="1_129" depart="1935.00">
        <route edges="52o 2i 1o 51i"/>
    </vehicle>
    <vehicle id="1_130" depart="1950.00">
        <route edges="51o 1i 4o 54i"/>
    </vehicle>
    <vehicle id="1_131" depart="1965.00">
        <route edges="52o 2i 3o 53i"/>
    </vehicle>
    <vehicle id="1_132" depart="1980.00">
        <route edges="52o 2i 4o 54i"/>
    </vehicle>
    <vehicle id="1_133" depart="1995.00">
        <route edges="51o 1i 2o 52i"/>
    </vehicle>
    <vehicle id="1_134" depart="2010.00">
        <route edges="53o 3i 1o 51i"/>
    </vehicle>
    <vehicle id="1_135" depart="2025.00">
        <route edges="52o 2i 4o 54i"/>
    </vehicle>
    <vehicle id="1_136" depart="2040.00">
        <route edges="53o 3i 1o 51i"/>
    </vehicle>
    <vehicle id="1_137" depart="2055.00">
        <route edges="52o 2i 3o 53i"/>
    </vehicle>
    <vehicle id="1_138" depart="2070.00">
        <route edges="52o 2i 1o 51i"/>
    </vehicle>
    <vehicle id="1_139" depart="2085.00">
        <route edges="53o 3i 4o 54i"/>
    </vehicle>
    <vehicle id="1_140" depart="2100.00">
        <route edges="54o 4i 2o 52i"/>
    </vehicle>
    <vehicle id="1_141" depart="2115.00">
        <route edges="51o 1i 2o 52i"/>
    </vehicle>
    <vehicle id="1_142" depart="2130.00">
        <route edges="52o 2i 3o 53i"/>
    </vehicle>
    <vehicle id="1_143" depart="2145.00">
        <route edges="53o 3i 4o 54i"/>
    </vehicle>
    <vehicle id="1_144" depart="2160.00">
        <route edges="51o 1i 2o 52i"/>
    </vehicle>
    <vehicle id="1_145" depart="2175.00">
        <route edges="52o 2i 4o 54i"/>
    </vehicle>
    <vehicle id="1_146" depart="2190.00">
        <route edges="52o 2i 3o 53i"/>
    </vehicle>
    <vehicle id="1_147" depart="2205.00">
        <route edges="52o 2i 3o 53i"/>
    </vehicle>
    <vehicle id="1_148" depart="2220.00">
        <route edges="51o 1i 2o 52i"/>
    </vehicle>
    <vehicle id="1_149" depart="2235.00">
        <route edges="53o 3i 4o 54i"/>
    </vehicle>
    <vehicle id="1_150" depart="2250.00">
        <route edges="53o 3i 4o 54i"/>
    </vehicle>
    <vehicle id="1_151" depart="2265.00">
        <route edges="54o 4i 2o 52i"/>
    </vehicle>
    <vehicle id="1_152" depart="2280.00">
        <route edges="54o 4i 1o 51i"/>
    </vehicle>
    <vehicle id="1_153" depart="2295.00">
        <route edges="54o 4i 3o 53i"/>
    </vehicle>
    <vehicle id="1_154" depart="2310.00">
        <route edges="53o 3i 4o 54i"/>
    </vehicle>
    <vehicle id="1_155" depart="2325.00">
        <route edges="51o 1i 4o 54i"/>
    </vehicle>
    <vehicle id="1_156" depart="2340.00">
        <route edges="54o 4i 2o 52i"/>
    </vehicle>
    <vehicle id="1_157" depart="2355.00">
        <route edges="52o 2i 3o 53i"/>
    </vehicle>
    <vehicle id="1_158" depart="2370.00">
        <route edges="54o 4i 3o 53i"/>
    </vehicle>
    <vehicle id="1_159" depart="2385.00">
        <route edges="52o 2i 3o 53i"/>
    </vehicle>
    <vehicle id="1_160" depart="2400.00">
        <route edges="53o 3i 4o 54i"/>
    </vehicle>
    <vehicle id="1_161" depart="2415.00">
        <route edges="51o 1i 3o 53i"/>
    </vehicle>
    <vehicle id="1_162" depart="2430.00">
        <route edges="53o 3i 4o 54i"/>
    </vehicle>
    <vehicle id="1_163" depart="2445.00">
        <route edges="53o 3i 4o 54i"/>
    </vehicle>
    <vehicle id="1_164" depart="2460.00">
        <route edges="54o 4i 1o 51i"/>
    </vehicle>
    <vehicle id="1_165" depart="2475.00">
        <route edges="53o 3i 4o 54i"/>
    </vehicle>
    <vehicle id="1_166" depart="2490.00">
        <route edges="51o 1i 4o 54i"/>
    </vehicle>
    <vehicle id="1_167" depart="2505.00">
        <route edges="54o 4i 3o 53i"/>
    </vehicle>
    <vehicle id="1_168" depart="2520.00">
        <route edges="54o 4i 1o 51i"/>
    </vehicle>
    <vehicle id="1_169" depart="2535.00">
        <route edges="53o 3i 4o 54i"/>
    </vehicle>
    <vehicle id="1_170" depart="2550.00">
        <route edges="54o 4i 1o 51i"/>
    </vehicle>
    <vehicle id="1_171" depart="2565.00">
        <route edges="53o 3i 2o 52i"/>
    </vehicle>
    <vehicle id="1_172" depart="2580.00">
        <route edges="54o 4i 2o 52i"/>
    </vehicle>
    <vehicle id="1_173" depart="2595.00">
        <route edges="53o 3i 1o 51i"/>
    </vehicle>
    <vehicle id="1_174" depart="2610.00">
        <route edges="54o 4i 1o 51i"/>
    </vehicle>
    <vehicle id="1_175" depart="2625.00">
        <route edges="51o 1i 4o 54i"/>
    </vehicle>
    <vehicle id="1_176" depart="2640.00">
        <route edges="51o 1i 4o 54i"/>
    </vehicle>
    <vehicle id="1_177" depart="2655.00">
        <route edges="54o 4i 3o 53i"/>
    </vehicle>
    <vehicle id="1_178" depart="2670.00">
        <route edges="52o 2i 4o 54i"/>
    </vehicle>
    <vehicle id="1_179" depart="2685.00">
        <route edges="51o 1i 2o 52i"/>
    </vehicle>
    <vehicle id="1_180" depart="2700.00">
        <route edges="54o 4i 3o 53i"/>
    </vehicle>
    <vehicle id="1_181" depart="2715.00">
        <route edges="53o 3i 1o 51i"/>
    </vehicle>
    <vehicle id="1_182" depart="2730.00">
        <route edges="54o 4i 2o 52i"/>
    </vehicle>
    <vehicle id="1_183" depart="2745.00">
        <route edges="54o 4i 3o 53i"/>
    </vehicle>
    <vehicle id="1_184" depart="2760.00">
        <route edges="53o 3i 2o 52i"/>
    </vehicle>
    <vehicle id="1_185" depart="2775.00">
        <route edges="51o 1i 4o 54i"/>
    </vehicle>
    <vehicle id="1_186" depart="2790.00">
        <route edges="53o 3i 2o 52i"/>
    </vehicle>
    <vehicle id="1_187" depart="2805.00">
        <route edges="52o 2i 3o 53i"/>
    </vehicle>
    <vehicle id="1_188" depart="2820.00">
        <route edges="53o 3i 2o 52i"/>
    </vehicle>
    <vehicle id="1_189" depart="2835.00">
        <route edges="52o 2i 3o 53i"/>
    </vehicle>
    <vehicle id="1_190" depart="2850.00">
        <route edges="52o 2i 4o 54i"/>
    </vehicle>
    <vehicle id="1_191" depart="2865.00">
        <route edges="53o 3i 2o 52i"/>
    </vehicle>
    <vehicle id="1_192" depart="2880.00">
        <route edges="54o 4i 1o 51i"/>
    </vehicle>
    <vehicle id="1_193" depart="2895.00">
        <route edges="54o 4i 1o 51i"/>
    </vehicle>
    <vehicle id="1_194" depart="2910.00">
        <route edges="54o 4i 2o 52i"/>
    </vehicle>
    <vehicle id="1_195" depart="2925.00">
        <route edges="54o 4i 3o 53i"/>
    </vehicle>
    <vehicle id="1_196" depart="2940.00">
        <route edges="53o 3i 2o 52i"/>
    </vehicle>
    <vehicle id="1_197" depart="2955.00">
        <route edges="52o 2i 4o 54i"/>
    </vehicle>
    <vehicle id="1_198" depart="2970.00">
        <route edges="51o 1i 2o 52i"/>
    </vehicle>
    <vehicle id="1_199" depart="2985.00">
        <route edges="53o 3i 2o 52i"/>
    </vehicle>
    <vehicle id="1_200" depart="3000.00">
        <route edges="51o 1i 2o 52i"/>
    </vehicle>
    <vehicle id="1_201" depart="3015.00">
        <route edges="54o 4i 3o 53i"/>
    </vehicle>
    <vehicle id="1_202" depart="3030.00">
        <route edges="52o 2i 3o 53i"/>
    </vehicle>
    <vehicle id="1_203" depart="3045.00">
        <route edges="53o 3i 2o 52i"/>
    </vehicle>
    <vehicle id="1_204" depart="3060.00">
        <route edges="51o 1i 3o 53i"/>
    </vehicle>
    <vehicle id="1_205" depart="3075.00">
        <route edges="54o 4i 1o 51i"/>
    </vehicle>
    <vehicle id="1_206" depart="3090.00">
        <route edges="53o 3i 4o 54i"/>
    </vehicle>
    <vehicle id="1_207" depart="3105.00">
        <route edges="53o 3i 4o 54i"/>
    </vehicle>
    <vehicle id="1_208" depart="3120.00">
        <route edges="51o 1i 2o 52i"/>
    </vehicle>
    <vehicle id="1_209" depart="3135.00">
        <route edges="54o 4i 1o 51i"/>
    </vehicle>
    <vehicle id="1_210" depart="3150.00">
        <route edges="1i 3o 53i"/>
    </vehicle>
    <vehicle id="1_211" depart="3165.00">
        <route edges="52o 2i 4o 54i"/>
    </vehicle>
    <vehicle id="1_212" depart="3180.00">
        <route edges="51o 1i 2o 52i"/>
    </vehicle>
    <vehicle id="1_213" depart="3195.00">
        <route edges="54o 4i 2o 52i"/>
    </vehicle>
    <vehicle id="1_214" depart="3210.00">
        <route edges="51o 1i 3o 53i"/>
    </vehicle>
    <vehicle id="1_215" depart="3225.00">
        <route edges="52o 2i 4o 54i"/>
    </vehicle>
    <vehicle id="1_216" depart="3240.00">
        <route edges="51o 1i 3o 53i"/>
    </vehicle>
    <vehicle id="1_217" depart="3255.00">
        <route edges="53o 3i 2o 52i"/>
    </vehicle>
    <vehicle id="1_218" depart="3270.00">
        <route edges="54o 4i 1o 51i"/>
    </vehicle>
    <vehicle id="1_219" depart="3285.00">
        <route edges="54o 4i 1o 51i"/>
    </vehicle>
    <vehicle id="1_220" depart="3300.00">
        <route edges="51o 1i 3o 53i"/>
    </vehicle>
    <vehicle id="1_221" depart="3315.00">
        <route edges="53o 3i 4o 54i"/>
    </vehicle>
    <vehicle id="1_222" depart="3330.00">
        <route edges="51o 1i 2o 52i"/>
    </vehicle>
    <vehicle id="1_223" depart="3345.00">
        <route edges="54o 4i 1o 51i"/>
    </vehicle>
    <vehicle id="1_224" depart="3360.00">
        <route edges="52o 2i 3o 53i"/>
    </vehicle>
    <vehicle id="1_225" depart="3375.00">
        <route edges="53o 3i 4o 54i"/>
    </vehicle>
    <vehicle id="1_226" depart="3390.00">
        <route edges="51o 1i 3o 53i"/>
    </vehicle>
    <vehicle id="1_227" depart="3405.00">
        <route edges="51o 1i 3o 53i"/>
    </vehicle>
    <vehicle id="1_228" depart="3420.00">
        <route edges="53o 3i 2o 52i"/>
    </vehicle>
    <vehicle id="1_229" depart="3435.00">
        <route edges="53o 3i 2o 52i"/>
    </vehicle>
    <vehicle id="1_230" depart="3450.00">
        <route edges="54o 4i 1o 51i"/>
    </vehicle>
    <vehicle id="1_231" depart="3465.00">
        <route edges="53o 3i 2o 52i"/>
    </vehicle>
    <vehicle id="1_232" depart="3480.00">
        <route edges="51o 1i 4o 54i"/>
    </vehicle>
    <vehicle id="1_233" depart="3495.00">
        <route edges="53o 3i 2o 52i"/>
    </vehicle>
    <vehicle id="1_234" depart="3510.00">
        <route edges="51o 1i 2o 52i"/>
    </vehicle>
    <vehicle id="1_235" depart="3525.00">
        <route edges="54o 4i 1o 51i"/>
    </vehicle>
    <vehicle id="1_236" depart="3540.00">
        <route edges="53o 3i 2o 52i"/>
    </vehicle>
    <vehicle id="1_237" depart="3555.00">
        <route edges="52o 2i 1o 51i"/>
    </vehicle>
    <vehicle id="1_238" depart="3570.00">
        <route edges="52o 2i 1o 51i"/>
    </vehicle>
    <vehicle id="1_239" depart="3585.00">
        <route edges="54o 4i 2o 52i"/>
    </vehicle>
    <vehicle id="2_0" depart="3600.00">
        <route edges="51o 1i 3o 53i"/>
    </vehicle>
    <vehicle id="2_1" depart="3606.00">
        <route edges="52o 2i 1o 51i"/>
    </vehicle>
    <vehicle id="2_2" depart="3612.00">
        <route edges="53o 3i 4o 54i"/>
    </vehicle>
    <vehicle id="2_3" depart="3618.00">
        <route edges="52o 2i 4o 54i"/>
    </vehicle>
    <vehicle id="2_4" depart="3624.00">
        <route edges="3i 1o 51i"/>
    </vehicle>
    <vehicle id="2_5" depart="3630.00">
        <route edges="53o 3i 4o 54i"/>
    </vehicle>
    <vehicle id="2_6" depart="3636.00">
        <route edges="1i 3o 53i"/>
    </vehicle>
    <vehicle id="2_7" depart="3642.00">
        <route edges="54o 4i 1o 51i"/>
    </vehicle>
    <vehicle id="2_8" depart="3648.00">
        <route edges="53o 3i 1o 51i"/>
    </vehicle>
    <vehicle id="2_9" depart="3654.00">
        <route edges="51o 1i 3o 53i"/>
    </vehicle>
    <vehicle id="2_10" depart="3660.00">
        <route edges="51o 1i 2o 52i"/>
    </vehicle>
    <vehicle id="2_11" depart="3666.00">
        <route edges="51o 1i 4o 54i"/>
    </vehicle>
    <vehicle id="2_12" depart="3672.00">
        <route edges="51o 1i 3o 53i"/>
    </vehicle>
    <vehicle id="2_13" depart="3678.00">
        <route edges="53o 3i 1o 51i"/>
    </vehicle>
    <vehicle id="2_14" depart="3684.00">
        <route edges="54o 4i 2o 52i"/>
    </vehicle>
    <vehicle id="2_15" depart="3690.00">
        <route edges="52o 2i 1o 51i"/>
    </vehicle>
    <vehicle id="2_16" depart="3696.00">
        <route edges="52o 2i 4o 54i"/>
    </vehicle>
    <vehicle id="2_17" depart="3702.00">
        <route edges="53o 3i 4o 54i"/>
    </vehicle>
    <vehicle id="2_18" depart="3708.00">
        <route edges="53o 3i 2o 52i"/>
    </vehicle>
    <vehicle id="2_19" depart="3714.00">
        <route edges="52o 2i 3o 53i"/>
    </vehicle>
    <vehicle id="2_20" depart="3720.00">
        <route edges="53o 3i 4o 54i"/>
    </vehicle>
    <vehicle id="2_21" depart="3726.00">
        <route edges="52o 2i 4o 54i"/>
    </vehicle>
    <vehicle id="2_22" depart="3732.00">
        <route edges="52o 2i 3o 53i"/>
    </vehicle>
    <vehicle id="2_23" depart="3738.00">
        <route edges="53o 3i 4o 54i"/>
    </vehicle>
    <vehicle id="2_24" depart="3744.00">
        <route edges="54o 4i 1o 51i"/>
    </vehicle>
    <vehicle id="2_25" depart="3750.00">
        <route edges="54o 4i 1o 51i"/>
    </vehicle>
    <vehicle id="2_26" depart="3756.00">
        <route edges="53o 3i 4o 54i"/>
    </vehicle>
    <vehicle id="2_27" depart="3762.00">
        <route edges="52o 2i 4o 54i"/>
    </vehicle>
    <vehicle id="2_28" depart="3768.00">
        <route edges="52o 2i 4o 54i"/>
    </vehicle>
    <vehicle id="2_29" depart="3774.00">
        <route edges="54o 4i 1o 51i"/>
    </vehicle>
    <vehicle id="2_30" depart="3780.00">
        <route edges="52o 2i 1o 51i"/>
    </vehicle>
    <vehicle id="2_31" depart="3786.00">
        <route edges="54o 4i 3o 53i"/>
    </vehicle>
    <vehicle id="2_32" depart="3792.00">
        <route edges="54o 4i 2o 52i"/>
    </vehicle>
    <vehicle id="2_33" depart="3798.00">
        <route edges="54o 4i 2o 52i"/>
    </vehicle>
    <vehicle id="2_34" depart="3804.00">
        <route edges="52o 2i 4o 54i"/>
    </vehicle>
    <vehicle id="2_35" depart="3810.00">
        <route edges="54o 4i 3o 53i"/>
    </vehicle>
    <vehicle id="2_36" depart="3816.00">
        <route edges="53o 3i 4o 54i"/>
    </vehicle>
    <vehicle id="2_37" depart="3822.00">
        <route edges="54o 4i 2o 52i"/>
    </vehicle>
    <vehicle id="2_38" depart="3828.00">
        <route edges="54o 4i 1o 51i"/>
    </vehicle>
    <vehicle id="2_39" depart="3834.00">
        <route edges="52o 2i 4o 54i"/>
    </vehicle>
    <vehicle id="2_40" depart="3840.00">
        <route edges="54o 4i 3o 53i"/>
    </vehicle>
    <vehicle id="2_41" depart="3846.00">
        <route edges="51o 1i 4o 54i"/>
    </vehicle>
    <vehicle id="2_42" depart="3852.00">
        <route edges="52o 2i 3o 53i"/>
    </vehicle>
    <vehicle id="2_43" depart="3858.00">
        <route edges="54o 4i 2o 52i"/>
    </vehicle>
    <vehicle id="2_44" depart="3864.00">
        <route edges="54o 4i 1o 51i"/>
    </vehicle>
    <vehicle id="2_45" depart="3870.00">
        <route edges="52o 2i 3o 53i"/>
    </vehicle>
    <vehicle id="2_46" depart="3876.00">
        <route edges="54o 4i 1o 51i"/>
    </vehicle>
    <vehicle id="2_47" depart="3882.00">
        <route edges="54o 4i 2o 52i"/>
    </vehicle>
    <vehicle id="2_48" depart="3888.00">
        <route edges="54o 4i 1o 51i"/>
    </vehicle>
    <vehicle id="2_49" depart="3894.00">
        <route edges="53o 3i 2o 52i"/>
    </vehicle>
    <vehicle id="2_50" depart="3900.00">
        <route edges="52o 2i 4o 54i"/>
    </vehicle>
    <vehicle id="2_51" depart="3906.00">
        <route edges="54o 4i 3o 53i"/>
    </vehicle>
    <vehicle id="2_52" depart="3912.00">
        <route edges="53o 3i 1o 51i"/>
    </vehicle>
    <vehicle id="2_53" depart="3918.00">
        <route edges="53o 3i 4o 54i"/>
    </vehicle>
    <vehicle id="2_54" depart="3924.00">
        <route edges="52o 2i 3o 53i"/>
    </vehicle>
    <vehicle id="2_55" depart="3930.00">
        <route edges="54o 4i 1o 51i"/>
    </vehicle>
    <vehicle id="2_56" depart="3936.00">
        <route edges="54o 4i 3o 53i"/>
    </vehicle>
    <vehicle id="2_57" depart="3942.00">
        <route edges="54o 4i 2o 52i"/>
    </vehicle>
    <vehicle id="2_58" depart="3948.00">
        <route edges="53o 3i 1o 51i"/>
    </vehicle>
    <vehicle id="2_59" depart="3954.00">
        <route edges="54o 4i 3o 53i"/>
    </vehicle>
    <vehicle id="2_60" depart="3960.00">
        <route edges="51o 1i 2o 52i"/>
    </vehicle>
    <vehicle id="2_61" depart="3966.00">
        <route edges="54o 4i 2o 52i"/>
    </vehicle>
    <vehicle id="2_62" depart="3972.00">
        <route edges="52o 2i 4o 54i"/>
    </vehicle>
    <vehicle id="2_63" depart="3978.00">
        <route edges="51o 1i 3o 53i"/>
    </vehicle>
    <vehicle id="2_64" depart="3984.00">
        <route edges="52o 2i 1o 51i"/>
    </vehicle>
    <vehicle id="2_65" depart="3990.00">
        <route edges="52o 2i 3o 53i"/>
    </vehicle>
    <vehicle id="2_66" depart="3996.00">
        <route edges="54o 4i 2o 52i"/>
    </vehicle>