<routes>
        <vType id="passenger" accel="0.8" decel="4.5" sigma="0.5" length="5" minGap="2.5" maxSpeed="16.67" guiShape="passenger"/>
        <vType id="typeNS" accel="0.8" decel="4.5" sigma="0.5" length="7" minGap="3" maxSpeed="25" guiShape="bus"/>

        <route id="right" edges="51o 1i 2o 52i" />
        <route id="left" edges="52o 2i 1o 51i" />
        <route id="down" edges="54o 4i 3o 53i" />
        <route id="up" edges="53o 3i 4o 54i" />
        
    <vehicle id="left_0_0_0" type="passenger" route="left" depart="0" />
    <vehicle id="left_0_0_1" type="passenger" route="left" depart="2" />
    <vehicle id="right__0_0_2" type="passenger" route="right" depart="3" />
    <vehicle id="up_0_0_3" type="passenger" route="up" depart="4" color="1,0,0"/>
    <vehicle id="up_0_0_4" type="passenger" route="up" depart="16" color="1,0,0"/>
    <vehicle id="right__0_0_5" type="passenger" route="right" depart="25" />
    <vehicle id="right__0_0_6" type="passenger" route="right" depart="31" />
    <vehicle id="down_0_0_7" type="passenger" route="down" depart="31" color="1,0,0"/>
    <vehicle id="left_0_0_8" type="passenger" route="left" depart="67" />
    <vehicle id="down_0_0_9" type="passenger" route="down" depart="72" color="1,0,0"/>
    <vehicle id="left_0_0_10" type="passenger" route="left" depart="74" />
    <vehicle id="right__0_0_11" type="passenger" route="right" depart="81" />
    <vehicle id="down_0_0_12" type="passenger" route="down" depart="85" color="1,0,0"/>
    <vehicle id="right__0_0_13" type="passenger" route="right" depart="92" />
    <vehicle id="down_0_0_14" type="passenger" route="down" depart="98" color="1,0,0"/>
    <vehicle id="up_0_0_15" type="passenger" route="up" depart="103" color="1,0,0"/>
    <vehicle id="up_0_0_16" type="passenger" route="up" depart="106" color="1,0,0"/>
    <vehicle id="left_0_0_17" type="passenger" route="left" depart="120" />
    <vehicle id="left_0_0_18" type="passenger" route="left" depart="123" />
    <vehicle id="left_0_0_19" type="passenger" route="left" depart="125" />
    <vehicle id="right__0_0_20" type="passenger" route="right" depart="126" />
    <vehicle id="down_0_0_21" type="passenger" route="down" depart="129" color="1,0,0"/>
    <vehicle id="right__0_0_22" type="passenger" route="right" depart="132" />
    <vehicle id="up_0_0_23" type="passenger" route="up" depart="135" color="1,0,0"/>
    <vehicle id="left_0_0_24" type="passenger" route="left" depart="147" />
    <vehicle id="down_0_0_25" type="passenger" route="down" depart="149" color="1,0,0"/>
    <vehicle id="left_0_0_26" type="passenger" route="left" depart="159" />
    <vehicle id="right__0_0_27" type="passenger" route="right" depart="171" />
    <vehicle id="right__0_0_28" type="passenger" route="right" depart="179" />
    <vehicle id="right__0_0_29" type="passenger" route="right" depart="182" />
    <vehicle id="left_0_0_30" type="passenger" route="left" depart="204" />
    <vehicle id="down_0_0_31" type="passenger" route="down" depart="206" color="1,0,0"/>
    <vehicle id="up_0_0_32" type="passenger" route="up" depart="212" color="1,0,0"/>
    <vehicle id="right__0_0_33" type="passenger" route="right" depart="216" />
    <vehicle id="down_0_0_34" type="passenger" route="down" depart="220" color="1,0,0"/>
    <vehicle id="right__0_0_35" type="passenger" route="right" depart="227" />
    <vehicle id="right__0_0_36" type="passenger" route="right" depart="239" />
    <vehicle id="down_0_0_37" type="passenger" route="down" depart="241" color="1,0,0"/>
    <vehicle id="up_0_0_38" type="passenger" route="up" depart="248" color="1,0,0"/>
    <vehicle id="left_0_0_39" type="passenger" route="left" depart="253" />
    <vehicle id="down_0_0_40" type="passenger" route="down" depart="256" color="1,0,0"/>
    <vehicle id="left_0_0_41" type="passenger" route="left" depart="258" />
    <vehicle id="down_0_0_42" type="passenger" route="down" depart="258" color="1,0,0"/>
    <vehicle id="left_0_0_43" type="passenger" route="left" depart="262" />
    <vehicle id="left_0_0_44" type="passenger" route="left" depart="281" />
    <vehicle id="left_0_0_45" type="passenger" route="left" depart="283" />
    <vehicle id="up_0_0_46" type="passenger" route="up" depart="284" color="1,0,0"/>
    <vehicle id="left_0_0_47" type="passenger" route="left" depart="291" />
    <vehicle id="right__0_0_48" type="passenger" route="right" depart="292" />
    <vehicle id="down_0_0_49" type="passenger" route="down" depart="293" color="1,0,0"/>
    <vehicle id="right__0_0_50" type="passenger" route="right" depart="296" />
    <vehicle id="left_0_0_51" type="passenger" route="left" depart="296" />
    <vehicle id="left_0_0_52" type="passenger" route="left" depart="298" />
    <vehicle id="down_0_0_53" type="passenger" route="down" depart="330" color="1,0,0"/>
    <vehicle id="left_0_0_54" type="passenger" route="left" depart="343" />
    <vehicle id="up_0_0_55" type="passenger" route="up" depart="344" color="1,0,0"/>
    <vehicle id="up_0_0_56" type="passenger" route="up" depart="347" color="1,0,0"/>
    <vehicle id="right__0_0_57" type="passenger" route="right" depart="352" />
    <vehicle id="left_0_0_58" type="passenger" route="left" depart="357" />
    <vehicle id="left_0_0_59" type="passenger" route="left" depart="359" />
    <vehicle id="right__0_0_60" type="passenger" route="right" depart="363" />
    <vehicle id="left_0_0_61" type="passenger" route="left" depart="372" />
    <vehicle id="left_0_0_62" type="passenger" route="left" depart="376" />
    <vehicle id="right__0_0_63" type="passenger" route="right" depart="389" />
    <vehicle id="right__0_0_64" type="passenger" route="right" depart="402" />
    <vehicle id="left_0_0_65" type="passenger" route="left" depart="414" />
    <vehicle id="left_0_0_66" type="passenger" route="left" depart="430" />
    <vehicle id="up_0_0_67" type="passenger" route="up" depart="433" color="1,0,0"/>
    <vehicle id="down_0_0_68" type="passenger" route="down" depart="434" color="1,0,0"/>
    <vehicle id="up_0_0_69" type="passenger" route="up" depart="451" color="1,0,0"/>
    <vehicle id="right__0_0_70" type="passenger" route="right" depart="459" />
    <vehicle id="down_0_0_71" type="passenger" route="down" depart="468" color="1,0,0"/>
    <vehicle id="right__0_0_72" type="passenger" route="right" depart="483" />
    <vehicle id="up_0_0_73" type="passenger" route="up" depart="484" color="1,0,0"/>
    <vehicle id="left_0_0_74" type="passenger" route="left" depart="490" />
    <vehicle id="down_0_0_75" type="passenger" route="down" depart="490" color="1,0,0"/>
    <vehicle id="down_0_0_76" type="passenger" route="down" depart="494" color="1,0,0"/>
    <vehicle id="left_0_0_77" type="passenger" route="left" depart="495" />
    <vehicle id="right__0_0_78" type="passenger" route="right" depart="496" />
    <vehicle id="down_0_0_79" type="passenger" route="down" depart="512" color="1,0,0"/>
    <vehicle id="up_0_0_80" type="passenger" route="up" depart="525" color="1,0,0"/>
    <vehicle id="right__0_0_81" type="passenger" route="right" depart="528" />
    <vehicle id="right__0_0_82" type="passenger" route="right" depart="530" />
    <vehicle id="down_0_0_83" type="passenger" route="down" depart="530" color="1,0,0"/>
    <vehicle id="down_0_0_84" type="passenger" route="down" depart="531" color="1,0,0"/>
    <vehicle id="left_0_0_85" type="passenger" route="left" depart="538" />
    <vehicle id="right__0_0_86" type="passenger" route="right" depart="543" />
    <vehicle id="left_0_0_87" type="passenger" route="left" depart="550" />
    <vehicle id="left_0_0_88" type="passenger" route="left" depart="555" />
    <vehicle id="down_0_0_89" type="passenger" route="down" depart="557" color="1,0,0"/>
    <vehicle id="down_0_0_90" type="passenger" route="down" depart="582" color="1,0,0"/>
    <vehicle id="down_0_0_91" type="passenger" route="down" depart="585" color="1,0,0"/>
    <vehicle id="up_0_0_92" type="passenger" route="up" depart="593" color="1,0,0"/>
    <vehicle id="down_0_0_93" type="passenger" route="down" depart="606" color="1,0,0"/>
    <vehicle id="left_0_0_94" type="passenger" route="left" depart="609" />
    <vehicle id="left_0_0_95" type="passenger" route="left" depart="613" />
    <vehicle id="right__0_0_96" type="passenger" route="right" depart="629" />
    <vehicle id="right__0_0_97" type="passenger" route="right" depart="634" />
    <vehicle id="up_0_0_98" type="passenger" route="up" depart="635" color="1,0,0"/>
    <vehicle id="up_0_0_99" type="passenger" route="up" depart="640" color="1,0,0"/>
    <vehicle id="right__0_0_100" type="passenger" route="right" depart="642" />
    <vehicle id="up_0_0_101" type="passenger" route="up" depart="646" color="1,0,0"/>
    <vehicle id="left_0_0_102" type="passenger" route="left" depart="659" />
    <vehicle id="right__0_0_103" type="passenger" route="right" depart="660" />
    <vehicle id="up_0_0_104" type="passenger" route="up" depart="671" color="1,0,0"/>
    <vehicle id="left_0_0_105" type="passenger" route="left" depart="676" />
    <vehicle id="up_0_0_106" type="passenger" route="up" depart="683" color="1,0,0"/>
    <vehicle id="right__0_0_107" type="passenger" route="right" depart="687" />
    <vehicle id="up_0_0_108" type="passenger" route="up" depart="688" color="1,0,0"/>
    <vehicle id="left_0_0_109" type="passenger" route="left" depart="704" />
    <vehicle id="left_0_0_110" type="passenger" route="left" depart="706" />
    <vehicle id="right__0_0_111" type="passenger" route="right" depart="709" />
    <vehicle id="right__0_0_112" type="passenger" route="right" depart="711" />
    <vehicle id="down_0_0_113" type="passenger" route="down" depart="712" color="1,0,0"/>
    <vehicle id="left_0_0_114" type="passenger" route="left" depart="714" />
    <vehicle id="left_0_0_115" type="passenger" route="left" depart="727" />
    <vehicle id="right__0_0_116" type="passenger" route="right" depart="731" />
    <vehicle id="right__0_0_117" type="passenger" route="right" depart="733" />
    <vehicle id="up_0_0_118" type="passenger" route="up" depart="741" color="1,0,0"/>
    <vehicle id="down_0_0_119" type="passenger" route="down" depart="747" color="1,0,0"/>
    <vehicle id="up_0_0_120" type="passenger" route="up" depart="754" color="1,0,0"/>
    <vehicle id="up_0_0_121" type="passenger" route="up" depart="760" color="1,0,0"/>
    <vehicle id="left_0_0_122" type="passenger" route="left" depart="782" />
    <vehicle id="left_0_0_123" type="passenger" route="left" depart="785" />
    <vehicle id="down_0_0_124" type="passenger" route="down" depart="792" color="1,0,0"/>
    <vehicle id="up_0_0_125" type="passenger" route="up" depart="795" color="1,0,0"/>
    <vehicle id="right__0_0_126" type="passenger" route="right" depart="801" />
    <vehicle id="up_0_0_127" type="passenger" route="up" depart="801" color="1,0,0"/>
    <vehicle id="up_0_0_128" type="passenger" route="up" depart="802" color="1,0,0"/>
    <vehicle id="right__0_0_129" type="passenger" route="right" depart="814" />
    <vehicle id="left_0_0_130" type="passenger" route="left" depart="828" />
    <vehicle id="down_0_0_131" type="passenger" route="down" depart="831" color="1,0,0"/>
    <vehicle id="left_0_0_132" type="passenger" route="left" depart="832" />
    <vehicle id="left_0_0_133" type="passenger" route="left" depart="841" />
    <vehicle id="left_0_0_134" type="passenger" route="left" depart="843" />
    <vehicle id="left_0_0_135" type="passenger" route="left" depart="850" />
    <vehicle id="down_0_0_136" type="passenger" route="down" depart="851" color="1,0,0"/>
    <vehicle id="left_0_0_137" type="passenger" route="left" depart="865" />
    <vehicle id="left_0_0_138" type="passenger" route="left" depart="879" />
    <vehicle id="right__0_0_139" type="passenger" route="right" depart="886" />
    <vehicle id="right__0_0_140" type="passenger" route="right" depart="906" />
    <vehicle id="right__0_0_141" type="passenger" route="right" depart="909" />
    <vehicle id="up_0_0_142" type="passenger" route="up" depart="913" color="1,0,0"/>
    <vehicle id="right__0_0_143" type="passenger" route="right" depart="928" />
    <vehicle id="up_0_0_144" type="passenger" route="up" depart="934" color="1,0,0"/>
    <vehicle id="down_0_0_145" type="passenger" route="down" depart="941" color="1,0,0"/>
    <vehicle id="left_0_0_146" type="passenger" route="left" depart="950" />
    <vehicle id="right__0_0_147" type="passenger" route="right" depart="961" />
    <vehicle id="up_0_0_148" type="passenger" route="up" depart="966" color="1,0,0"/>
    <vehicle id="left_0_0_149" type="passenger" route="left" depart="967" />
    <vehicle id="right__0_0_150" type="passenger" route="right" depart="978" />
    <vehicle id="left_0_0_151" type="passenger" route="left" depart="988" />
    <vehicle id="down_0_0_152" type="passenger" route="down" depart="991" color="1,0,0"/>
    <vehicle id="left_0_0_153" type="passenger" route="left" depart="999" />
    <vehicle id="left_0_0_154" type="passenger" route="left" depart="1008" />
    <vehicle id="up_0_0_155" type="passenger" route="up" depart="1017" color="1,0,0"/>
    <vehicle id="down_0_0_156" type="passenger" route="down" depart="1023" color="1,0,0"/>
    <vehicle id="up_0_0_157" type="passenger" route="up" depart="1024" color="1,0,0"/>
    <vehicle id="left_0_0_158" type="passenger" route="left" depart="1025" />
    <vehicle id="down_0_0_159" type="passenger" route="down" depart="1035" color="1,0,0"/>
    <vehicle id="right__0_0_160" type="passenger" route="right" depart="1038" />
    <vehicle id="right__0_0_161" type="passenger" route="right" depart="1052" />
    <vehicle id="right__0_0_162" type="passenger" route="right" depart="1065" />
    <vehicle id="up_0_0_163" type="passenger" route="up" depart="1074" color="1,0,0"/>
    <vehicle id="down_0_0_164" type="passenger" route="down" depart="1077" color="1,0,0"/>
    <vehicle id="right__0_0_165" type="passenger" route="right" depart="1081" />
    <vehicle id="down_0_0_166" type="passenger" route="down" depart="1087" color="1,0,0"/>
    <vehicle id="up_0_0_167" type="passenger" route="up" depart="1088" color="1,0,0"/>
    <vehicle id="up_0_0_168" type="passenger" route="up" depart="1089" color="1,0,0"/>
    <vehicle id="up_0_0_169" type="passenger" route="up" depart="1090" color="1,0,0"/>
    <vehicle id="up_0_0_170" type="passenger" route="up" depart="1097" color="1,0,0"/>
    <vehicle id="right__0_0_171" type="passenger" route="right" depart="1098" />
    <vehicle id="left_0_0_172" type="passenger" route="left" depart="1106" />
    <vehicle id="up_0_0_173" type="passenger" route="up" depart="1112" color="1,0,0"/>
    <vehicle id="right__0_0_174" type="passenger" route="right" depart="1113" />
    <vehicle id="left_0_0_175" type="passenger" route="left" depart="1124" />
    <vehicle id="left_0_0_176" type="passenger" route="left" depart="1125" />
    <vehicle id="left_0_0_177" type="passenger" route="left" depart="1150" />
    <vehicle id="left_0_0_178" type="passenger" route="left" depart="1152" />
    <vehicle id="down_0_0_179" type="passenger" route="down" depart="1160" color="1,0,0"/>
    <vehicle id="up_0_0_180" type="passenger" route="up" depart="1171" color="1,0,0"/>
    <vehicle id="down_0_0_181" type="passenger" route="down" depart="1176" color="1,0,0"/>
    <vehicle id="down_0_0_182" type="passenger" route="down" depart="1177" color="1,0,0"/>
    <vehicle id="right__0_0_183" type="passenger" route="right" depart="1180" />
    <vehicle id="down_0_0_184" type="passenger" route="down" depart="1182" color="1,0,0"/>
    <vehicle id="right__0_0_185" type="passenger" route="right" depart="1184" />
    <vehicle id="down_0_0_186" type="passenger" route="down" depart="1187" color="1,0,0"/>
    <vehicle id="up_0_0_187" type="passenger" route="up" depart="1191" color="1,0,0"/>
    <vehicle id="right__0_0_188" type="passenger" route="right" depart="1209" />
    <vehicle id="down_0_0_189" type="passenger" route="down" depart="1209" color="1,0,0"/>
    <vehicle id="left_0_0_190" type="passenger" route="left" depart="1213" />
    <vehicle id="left_0_0_191" type="passenger" route="left" depart="1234" />
    <vehicle id="left_0_0_192" type="passenger" route="left" depart="1238" />
    <vehicle id="left_0_0_193" type="passenger" route="left" depart="1252" />
    <vehicle id="down_0_0_194" type="passenger" route="down" depart="1252" color="1,0,0"/>
    <vehicle id="right__0_0_195" type="passenger" route="right" depart="1255" />
    <vehicle id="up_0_0_196" type="passenger" route="up" depart="1256" color="1,0,0"/>
    <vehicle id="right__0_0_197" type="passenger" route="right" depart="1258" />
    <vehicle id="right__0_0_198" type="passenger" route="right" depart="1265" />
    <vehicle id="up_0_0_199" type="passenger" route="up" depart="1267" color="1,0,0"/>
    <vehicle id="right__0_0_200" type="passenger" route="right" depart="1271" />
    <vehicle id="down_0_0_201" type="passenger" route="down" depart="1275" color="1,0,0"/>
    <vehicle id="right__0_0_202" type="passenger" route="right" depart="1277" />
    <vehicle id="up_0_0_203" type="passenger" route="up" depart="1280" color="1,0,0"/>
    <vehicle id="right__0_0_204" type="passenger" route="right" depart="1294" />
    <vehicle id="right__0_0_205" type="passenger" route="right" depart="1307" />
    <vehicle id="left_0_0_206" type="passenger" route="left" depart="1311" />
    <vehicle id="right__0_0_207" type="passenger" route="right" depart="1319" />
    <vehicle id="up_0_0_208" type="passenger" route="up" depart="1333" color="1,0,0"/>
    <vehicle id="up_0_0_209" type="passenger" route="up" depart="1338" color="1,0,0"/>
    <vehicle id="up_0_0_210" type="passenger" route="up" depart="1348" color="1,0,0"/>
    <vehicle id="left_0_0_211" type="passenger" route="left" depart="1350" />
    <vehicle id="right__0_0_212" type="passenger" route="right" depart="1356" />
    <vehicle id="up_0_0_213" type="passenger" route="up" depart="1357" color="1,0,0"/>
    <vehicle id="right__0_0_214" type="passenger" route="right" depart="1375" />
    <vehicle id="left_0_0_215" type="passenger" route="left" depart="1385" />
    <vehicle id="right__0_0_216" type="passenger" route="right" depart="1386" />
    <vehicle id="down_0_0_217" type="passenger" route="down" depart="1388" color="1,0,0"/>
    <vehicle id="right__0_0_218" type="passenger" route="right" depart="1400" />
    <vehicle id="down_0_0_219" type="passenger" route="down" depart="1400" color="1,0,0"/>
    <vehicle id="left_0_0_220" type="passenger" route="left" depart="1404" />
    <vehicle id="right__0_0_221" type="passenger" route="right" depart="1406" />
    <vehicle id="up_0_0_222" type="passenger" route="up" depart="1428" color="1,0,0"/>
    <vehicle id="left_0_0_223" type="passenger" route="left" depart="1429" />
    <vehicle id="right__0_0_224" type="passenger" route="right" depart="1430" />
    <vehicle id="right__0_0_225" type="passenger" route="right" depart="1432" />
    <vehicle id="right__0_0_226" type="passenger" route="right" depart="1435" />
    <vehicle id="left_0_0_227" type="passenger" route="left" depart="1438" />
    <vehicle id="right__0_0_228" type="passenger" route="right" depart="1465" />
    <vehicle id="down_0_0_229" type="passenger" route="down" depart="1466" color="1,0,0"/>
    <vehicle id="up_0_0_230" type="passenger" route="up" depart="1469" color="1,0,0"/>
    <vehicle id="left_0_0_231" type="passenger" route="left" depart="1477" />
    <vehicle id="right__0_0_232" type="passenger" route="right" depart="1490" />
    <vehicle id="down_0_0_233" type="passenger" route="down" depart="1491" color="1,0,0"/>
    <vehicle id="up_0_0_234" type="passenger" route="up" depart="1491" color="1,0,0"/>
    <vehicle id="left_0_0_235" type="passenger" route="left" depart="1505" />
    <vehicle id="right__0_0_236" type="passenger" route="right" depart="1513" />
    <vehicle id="down_0_0_237" type="passenger" route="down" depart="1523" color="1,0,0"/>
    <vehicle id="up_0_0_238" type="passenger" route="up" depart="1549" color="1,0,0"/>
    <vehicle id="down_0_0_239" type="passenger" route="down" depart="1551" color="1,0,0"/>
    <vehicle id="down_0_0_240" type="passenger" route="down" depart="1557" color="1,0,0"/>
    <vehicle id="up_0_0_241" type="passenger" route="up" depart="1558" color="1,0,0"/>
    <vehicle id="down_0_0_242" type="passenger" route="down" depart="1562" color="1,0,0"/>
    <vehicle id="right__0_0_243" type="passenger" route="right" depart="1576" />
    <vehicle id="right__0_0_244" type="passenger" route="right" depart="1586" />
    <vehicle id="down_0_0_245" type="passenger" route="down" depart="1588" color="1,0,0"/>
    <vehicle id="up_0_0_246" type="passenger" route="up" depart="1600" color="1,0,0"/>
    <vehicle id="up_0_0_247" type="passenger" route="up" depart="1608" color="1,0,0"/>
    <vehicle id="left_0_0_248" type="passenger" route="left" depart="1613" />
    <vehicle id="left_0_0_249" type="passenger" route="left" depart="1632" />
    <vehicle id="right__0_0_250" type="passenger" route="right" depart="1637" />
    <vehicle id="left_0_0_251" type="passenger" route="left" depart="1647" />
    <vehicle id="right__0_0_252" type="passenger" route="right" depart="1655" />
    <vehicle id="down_0_0_253" type="passenger" route="down" depart="1658" color="1,0,0"/>
    <vehicle id="right__0_0_254" type="passenger" route="right" depart="1661" />
    <vehicle id="up_0_0_255" type="passenger" route="up" depart="1683" color="1,0,0"/>
    <vehicle id="right__0_0_256" type="passenger" route="right" depart="1688" />
    <vehicle id="down_0_0_257" type="passenger" route="down" depart="1688" color="1,0,0"/>
    <vehicle id="up_0_0_258" type="passenger" route="up" depart="1691" color="1,0,0"/>
    <vehicle id="up_0_0_259" type="passenger" route="up" depart="1694" color="1,0,0"/>
    <vehicle id="up_0_0_260" type="passenger" route="up" depart="1701" color="1,0,0"/>
    <vehicle id="right__0_0_261" type="passenger" route="right" depart="1710" />
    <vehicle id="left_0_0_262" type="passenger" route="left" depart="1710" />
    <vehicle id="up_0_0_263" type="passenger" route="up" depart="1711" color="1,0,0"/>
    <vehicle id="right__0_0_264" type="passenger" route="right" depart="1714" />
    <vehicle id="right__0_0_265" type="passenger" route="right" depart="1728" />
    <vehicle id="down_0_0_266" type="passenger" route="down" depart="1728" color="1,0,0"/>
    <vehicle id="down_0_0_267" type="passenger" route="down" depart="1734" color="1,0,0"/>
    <vehicle id="down_0_0_268" type="passenger" route="down" depart="1738" color="1,0,0"/>
    <vehicle id="down_0_0_269" type="passenger" route="down" depart="1741" color="1,0,0"/>
    <vehicle id="right__0_0_270" type="passenger" route="right" depart="1776" />
    <vehicle id="left_0_0_271" type="passenger" route="left" depart="1778" />
    <vehicle id="up_0_0_272" type="passenger" route="up" depart="1778" color="1,0,0"/>
    <vehicle id="right__0_0_273" type="passenger" route="right" depart="1783" />
    <vehicle id="down_0_0_274" type="passenger" route="down" depart="1793" color="1,0,0"/>
    <vehicle id="up_0_0_275" type="passenger" route="up" depart="1794" color="1,0,0"/>
    <vehicle id="right__0_0_276" type="passenger" route="right" depart="1803" />
    <vehicle id="up_0_0_277" type="passenger" route="up" depart="1803" color="1,0,0"/>
    <vehicle id="up_0_0_278" type="passenger" route="up" depart="1806" color="1,0,0"/>
    <vehicle id="down_0_0_279" type="passenger" route="down" depart="1809" color="1,0,0"/>
    <vehicle id="up_0_0_280" type="passenger" route="up" depart="1810" color="1,0,0"/>
    <vehicle id="down_0_0_281" type="passenger" route="down" depart="1825" color="1,0,0"/>
    <vehicle id="down_0_0_282" type="passenger" route="down" depart="1826" color="1,0,0"/>
    <vehicle id="right__0_0_283" type="passenger" route="right" depart="1834" />
    <vehicle id="up_0_0_284" type="passenger" route="up" depart="1838" color="1,0,0"/>
    <vehicle id="up_0_0_285" type="passenger" route="up" depart="1847" color="1,0,0"/>
    <vehicle id="right__0_0_286" type="passenger" route="right" depart="1854" />
    <vehicle id="down_0_0_287" type="passenger" route="down" depart="1854" color="1,0,0"/>
    <vehicle id="right__0_0_288" type="passenger" route="right" depart="1858" />
    <vehicle id="up_0_0_289" type="passenger" route="up" depart="1859" color="1,0,0"/>
    <vehicle id="up_0_0_290" type="passenger" route="up" depart="1861" color="1,0,0"/>
    <vehicle id="down_0_0_291" type="passenger" route="down" depart="1862" color="1,0,0"/>
    <vehicle id="up_0_0_292" type="passenger" route="up" depart="1876" color="1,0,0"/>
    <vehicle id="left_0_0_293" type="passenger" route="left" depart="1889" />
    <vehicle id="down_0_0_294" type="passenger" route="down" depart="1897" color="1,0,0"/>
    <vehicle id="right__0_0_295" type="passenger" route="right" depart="1900" />
    <vehicle id="down_0_0_296" type="passenger" route="down" depart="1905" color="1,0,0"/>
    <vehicle id="up_0_0_297" type="passenger" route="up" depart="1913" color="1,0,0"/>
    <vehicle id="right__0_0_298" type="passenger" route="right" depart="1928" />
    <vehicle id="down_0_0_299" type="passenger" route="down" depart="1931" color="1,0,0"/>
    <vehicle id="left_0_0_300" type="passenger" route="left" depart="1934" />
    <vehicle id="left_0_0_301" type="passenger" route="left" depart="1937" />
    <vehicle id="down_0_0_302" type="passenger" route="down" depart="1957" color="1,0,0"/>
    <vehicle id="up_0_0_303" type="passenger" route="up" depart="1960" color="1,0,0"/>
    <vehicle id="left_0_0_304" type="passenger" route="left" depart="1964" />
    <vehicle id="up_0_0_305" type="passenger" route="up" depart="1972" color="1,0,0"/>
    <vehicle id="left_0_0_306" type="passenger" route="left" depart="1977" />
    <vehicle id="left_0_0_307" type="passenger" route="left" depart="1980" />
    <vehicle id="down_0_0_308" type="passenger" route="down" depart="1984" color="1,0,0"/>
    <vehicle id="up_0_0_309" type="passenger" route="up" depart="1987" color="1,0,0"/>
    <vehicle id="down_0_0_310" type="passenger" route="down" depart="1995" color="1,0,0"/>
    <vehicle id="left_0_0_311" type="passenger" route="left" depart="2004" />
    <vehicle id="down_0_0_312" type="passenger" route="down" depart="2005" color="1,0,0"/>
    <vehicle id="right__0_0_313" type="passenger" route="right" depart="2015" />
    <vehicle id="right__0_0_314" type="passenger" route="right" depart="2035" />
    <vehicle id="up_0_0_315" type="passenger" route="up" depart="2054" color="1,0,0"/>
    <vehicle id="up_0_0_316" type="passenger" route="up" depart="2059" color="1,0,0"/>
    <vehicle id="right__0_0_317" type="passenger" route="right" depart="2065" />
    <vehicle id="left_0_0_318" type="passenger" route="left" depart="2069" />
    <vehicle id="left_0_0_319" type="passenger" route="left" depart="2075" />
    <vehicle id="right__0_0_320" type="passenger" route="right" depart="2077" />
    <vehicle id="left_0_0_321" type="passenger" route="left" depart="2089" />
    <vehicle id="down_0_0_322" type="passenger" route="down" depart="2092" color="1,0,0"/>
    <vehicle id="down_0_0_323" type="passenger" route="down" depart="2099" color="1,0,0"/>
    <vehicle id="up_0_0_324" type="passenger" route="up" depart="2121" color="1,0,0"/>
    <vehicle id="up_0_0_325" type="passenger" route="up" depart="2123" color="1,0,0"/>
    <vehicle id="right__0_0_326" type="passenger" route="right" depart="2131" />
    <vehicle id="down_0_0_327" type="passenger" route="down" depart="2136" color="1,0,0"/>
    <vehicle id="right__0_0_328" type="passenger" route="right" depart="2150" />
    <vehicle id="left_0_0_329" type="passenger" route="left" depart="2150" />
    <vehicle id="left_0_0_330" type="passenger" route="left" depart="2153" />
    <vehicle id="down_0_0_331" type="passenger" route="down" depart="2164" color="1,0,0"/>
    <vehicle id="left_0_0_332" type="passenger" route="left" depart="2173" />
    <vehicle id="up_0_0_333" type="passenger" route="up" depart="2175" color="1,0,0"/>
    <vehicle id="up_0_0_334" type="passenger" route="up" depart="2187" color="1,0,0"/>
    <vehicle id="up_0_0_335" type="passenger" route="up" depart="2191" color="1,0,0"/>
    <vehicle id="right__0_0_336" type="passenger" route="right" depart="2194" />
    <vehicle id="left_0_0_337" type="passenger" route="left" depart="2200" />
    <vehicle id="down_0_0_338" type="passenger" route="down" depart="2209" color="1,0,0"/>
    <vehicle id="left_0_0_339" type="passenger" route="left" depart="2219" />
    <vehicle id="up_0_0_340" type="passenger" route="up" depart="2219" color="1,0,0"/>
    <vehicle id="right__0_0_341" type="passenger" route="right" depart="2225" />
    <vehicle id="right__0_0_342" type="passenger" route="right" depart="2227" />
    <vehicle id="up_0_0_343" type="passenger" route="up" depart="2231" color="1,0,0"/>
    <vehicle id="down_0_0_344" type="passenger" route="down" depart="2232" color="1,0,0"/>
    <vehicle id="left_0_0_345" type="passenger" route="left" depart="2241" />
    <vehicle id="down_0_0_346" type="passenger" route="down" depart="2243" color="1,0,0"/>
    <vehicle id="right__0_0_347" type="passenger" route="right" depart="2245" />
    <vehicle id="up_0_0_348" type="passenger" route="up" depart="2245" color="1,0,0"/>
    <vehicle id="left_0_0_349" type="passenger" route="left" depart="2264" />
    <vehicle id="left_0_0_350" type="passenger" route="left" depart="2269" />
    <vehicle id="right__0_0_351" type="passenger" route="right" depart="2277" />
    <vehicle id="left_0_0_352" type="passenger" route="left" depart="2286" />
    <vehicle id="left_0_0_353" type="passenger" route="left" depart="2291" />
    <vehicle id="down_0_0_354" type="passenger" route="down" depart="2295" color="1,0,0"/>