<?xml version="1.0" encoding="UTF-8"?>

<!-- generated on Thu Nov  7 22:27:28 2019 by Eclipse SUMO duarouter Version 1.2.0
<configuration xmlns:xsi="http://www.w3.org/2001/XMLSchema-instance" xsi:noNamespaceSchemaLocation="http://sumo.dlr.de/xsd/duarouterConfiguration.xsd">

    <input>
        <net-file value="networks/isolated_3_lanes_4_stages.net.xml"/>
        <route-files value="demand/isolated_3_lanes_20p.trip.xml"/>
    </input>

    <output>
        <output-file value="routes/isolated_3_lanes_20p.rou.xml"/>
        <alternatives-output value="routes/isolated_3_lanes_20p.rou.alt.xml"/>
    </output>

    <time>
        <begin value="0.0"/>
        <end value="7200.0"/>
    </time>

    <report>
        <no-warnings value="true"/>
        <ignore-errors value="true"/>
        <no-step-log value="true"/>
    </report>

</configuration>
-->

<routes xmlns:xsi="http://www.w3.org/2001/XMLSchema-instance" xsi:noNamespaceSchemaLocation="http://sumo.dlr.de/xsd/routes_file.xsd">
    <vehicle id="0" depart="0.00">
        <route edges="53o 3i 2o 52i"/>
    </vehicle>
    <vehicle id="1" depart="3.57">
        <route edges="51o 1i 3o 53i"/>
    </vehicle>
    <vehicle id="2" depart="7.14">
        <route edges="52o 2i 4o 54i"/>
    </vehicle>
    <vehicle id="3" depart="10.71">
        <route edges="54o 4i 3o 53i"/>
    </vehicle>
    <vehicle id="4" depart="14.28">
        <route edges="54o 4i 2o 52i"/>
    </vehicle>
    <vehicle id="5" depart="17.85">
        <route edges="52o 2i 3o 53i"/>
    </vehicle>
    <vehicle id="6" depart="21.42">
        <route edges="52o 2i 1o 51i"/>
    </vehicle>
    <vehicle id="7" depart="24.99">
        <route edges="52o 2i 1o 51i"/>
    </vehicle>
    <vehicle id="8" depart="28.56">
        <route edges="52o 2i 1o 51i"/>
    </vehicle>
    <vehicle id="9" depart="32.13">
        <route edges="51o 1i 4o 54i"/>
    </vehicle>
    <vehicle id="10" depart="35.70">
        <route edges="54o 4i 2o 52i"/>
    </vehicle>
    <vehicle id="11" depart="39.27">
        <route edges="52o 2i 3o 53i"/>
    </vehicle>
    <vehicle id="12" depart="42.84">
        <route edges="53o 3i 4o 54i"/>
    </vehicle>
    <vehicle id="13" depart="46.41">
        <route edges="51o 1i 3o 53i"/>
    </vehicle>
    <vehicle id="14" depart="49.98">
        <route edges="52o 2i 3o 53i"/>
    </vehicle>
    <vehicle id="15" depart="53.55">
        <route edges="53o 3i 4o 54i"/>
    </vehicle>
    <vehicle id="16" depart="57.12">
        <route edges="52o 2i 3o 53i"/>
    </vehicle>
    <vehicle id="17" depart="60.69">
        <route edges="53o 3i 2o 52i"/>
    </vehicle>
    <vehicle id="18" depart="64.26">
        <route edges="52o 2i 3o 53i"/>
    </vehicle>
    <vehicle id="19" depart="67.83">
        <route edges="52o 2i 1o 51i"/>
    </vehicle>
    <vehicle id="20" depart="71.40">
        <route edges="54o 4i 3o 53i"/>
    </vehicle>
    <vehicle id="21" depart="74.97">
        <route edges="51o 1i 3o 53i"/>
    </vehicle>
    <vehicle id="22" depart="78.54">
        <route edges="52o 2i 3o 53i"/>
    </vehicle>
    <vehicle id="23" depart="82.11">
        <route edges="51o 1i 3o 53i"/>
    </vehicle>
    <vehicle id="24" depart="85.68">
        <route edges="53o 3i 4o 54i"/>
    </vehicle>
    <vehicle id="25" depart="89.25">
        <route edges="51o 1i 4o 54i"/>
    </vehicle>
    <vehicle id="26" depart="92.82">
        <route edges="51o 1i 3o 53i"/>
    </vehicle>
    <vehicle id="27" depart="96.39">
        <route edges="52o 2i 1o 51i"/>
    </vehicle>
    <vehicle id="28" depart="99.96">
        <route edges="54o 4i 1o 51i"/>
    </vehicle>
    <vehicle id="29" depart="103.53">
        <route edges="54o 4i 3o 53i"/>
    </vehicle>
    <vehicle id="30" depart="107.10">
        <route edges="52o 2i 4o 54i"/>
    </vehicle>
    <vehicle id="31" depart="110.67">
        <route edges="53o 3i 2o 52i"/>
    </vehicle>
    <vehicle id="32" depart="114.24">
        <route edges="53o 3i 4o 54i"/>
    </vehicle>
    <vehicle id="33" depart="117.81">
        <route edges="54o 4i 1o 51i"/>
    </vehicle>
    <vehicle id="34" depart="121.38">
        <route edges="53o 3i 4o 54i"/>
    </vehicle>
    <vehicle id="35" depart="124.95">
        <route edges="53o 3i 4o 54i"/>
    </vehicle>
    <vehicle id="36" depart="128.52">
        <route edges="52o 2i 4o 54i"/>
    </vehicle>
    <vehicle id="37" depart="132.09">
        <route edges="52o 2i 4o 54i"/>
    </vehicle>
    <vehicle id="38" depart="135.66">
        <route edges="52o 2i 3o 53i"/>
    </vehicle>
    <vehicle id="39" depart="139.23">
        <route edges="53o 3i 2o 52i"/>
    </vehicle>
    <vehicle id="40" depart="142.80">
        <route edges="52o 2i 4o 54i"/>
    </vehicle>
    <vehicle id="41" depart="146.37">
        <route edges="51o 1i 3o 53i"/>
    </vehicle>
    <vehicle id="42" depart="149.94">
        <route edges="54o 4i 1o 51i"/>
    </vehicle>
    <vehicle id="43" depart="153.51">
        <route edges="52o 2i 4o 54i"/>
    </vehicle>
    <vehicle id="44" depart="157.08">
        <route edges="54o 4i 3o 53i"/>
    </vehicle>
    <vehicle id="45" depart="160.65">
        <route edges="51o 1i 2o 52i"/>
    </vehicle>
    <vehicle id="46" depart="164.22">
        <route edges="52o 2i 1o 51i"/>
    </vehicle>
    <vehicle id="47" depart="167.79">
        <route edges="54o 4i 2o 52i"/>
    </vehicle>
    <vehicle id="48" depart="171.36">
        <route edges="52o 2i 1o 51i"/>
    </vehicle>
    <vehicle id="49" depart="174.93">
        <route edges="52o 2i 1o 51i"/>
    </vehicle>
    <vehicle id="50" depart="178.50">
        <route edges="54o 4i 2o 52i"/>
    </vehicle>
    <vehicle id="51" depart="182.07">
        <route edges="53o 3i 2o 52i"/>
    </vehicle>
    <vehicle id="52" depart="185.64">
        <route edges="53o 3i 1o 51i"/>
    </vehicle>
    <vehicle id="53" depart="189.21">
        <route edges="52o 2i 3o 53i"/>
    </vehicle>
    <vehicle id="54" depart="192.78">
        <route edges="52o 2i 3o 53i"/>
    </vehicle>
    <vehicle id="55" depart="196.35">
        <route edges="53o 3i 1o 51i"/>
    </vehicle>
    <vehicle id="56" depart="199.92">
        <route edges="54o 4i 3o 53i"/>
    </vehicle>
    <vehicle id="57" depart="203.49">
        <route edges="51o 1i 3o 53i"/>
    </vehicle>
    <vehicle id="58" depart="207.06">
        <route edges="54o 4i 3o 53i"/>
    </vehicle>
    <vehicle id="59" depart="210.63">
        <route edges="51o 1i 3o 53i"/>
    </vehicle>
    <vehicle id="60" depart="214.20">
        <route edges="53o 3i 1o 51i"/>
    </vehicle>
    <vehicle id="61" depart="217.77">
        <route edges="53o 3i 2o 52i"/>
    </vehicle>
    <vehicle id="62" depart="221.34">
        <route edges="52o 2i 4o 54i"/>
    </vehicle>
    <vehicle id="63" depart="224.91">
        <route edges="51o 1i 4o 54i"/>
    </vehicle>
    <vehicle id="64" depart="228.48">
        <route edges="51o 1i 3o 53i"/>
    </vehicle>
    <vehicle id="65" depart="232.05">
        <route edges="51o 1i 4o 54i"/>
    </vehicle>
    <vehicle id="66" depart="235.62">
        <route edges="51o 1i 2o 52i"/>
    </vehicle>
    <vehicle id="67" depart="239.19">
        <route edges="51o 1i 3o"/>
    </vehicle>
    <vehicle id="68" depart="242.76">
        <route edges="54o 4i 2o 52i"/>
    </vehicle>
    <vehicle id="69" depart="246.33">
        <route edges="53o 3i 2o 52i"/>
    </vehicle>
    <vehicle id="70" depart="249.90">
        <route edges="52o 2i 4o 54i"/>
    </vehicle>
    <vehicle id="71" depart="253.47">
        <route edges="53o 3i 1o 51i"/>
    </vehicle>
    <vehicle id="72" depart="257.04">
        <route edges="51o 1i 3o 53i"/>
    </vehicle>
    <vehicle id="73" depart="260.61">
        <route edges="54o 4i 2o 52i"/>
    </vehicle>
    <vehicle id="74" depart="264.18">
        <route edges="52o 2i 3o 53i"/>
    </vehicle>
    <vehicle id="75" depart="267.75">
        <route edges="54o 4i 1o 51i"/>
    </vehicle>
    <vehicle id="76" depart="271.32">
        <route edges="51o 1i 2o 52i"/>
    </vehicle>
    <vehicle id="77" depart="274.89">
        <route edges="52o 2i 1o 51i"/>
    </vehicle>
    <vehicle id="78" depart="278.46">
        <route edges="54o 4i 3o 53i"/>
    </vehicle>
    <vehicle id="79" depart="282.03">
        <route edges="54o 4i 1o 51i"/>
    </vehicle>
    <vehicle id="80" depart="285.60">
        <route edges="52o 2i 4o 54i"/>
    </vehicle>
    <vehicle id="81" depart="289.17">
        <route edges="51o 1i 4o 54i"/>
    </vehicle>
    <vehicle id="82" depart="292.74">
        <route edges="53o 3i 2o 52i"/>
    </vehicle>
    <vehicle id="83" depart="296.31">
        <route edges="51o 1i 4o 54i"/>
    </vehicle>
    <vehicle id="84" depart="299.88">
        <route edges="54o 4i 1o 51i"/>
    </vehicle>
    <vehicle id="85" depart="303.45">
        <route edges="51o 1i 2o 52i"/>
    </vehicle>
    <vehicle id="86" depart="307.02">
        <route edges="54o 4i 1o 51i"/>
    </vehicle>
    <vehicle id="87" depart="310.59">
        <route edges="52o 2i 4o 54i"/>
    </vehicle>
    <vehicle id="88" depart="314.16">
        <route edges="52o 2i 1o 51i"/>
    </vehicle>
    <vehicle id="89" depart="317.73">
        <route edges="54o 4i 2o 52i"/>
    </vehicle>
    <vehicle id="90" depart="321.30">
        <route edges="53o 3i 1o 51i"/>
    </vehicle>
    <vehicle id="91" depart="324.87">
        <route edges="51o 1i 2o 52i"/>
    </vehicle>
    <vehicle id="92" depart="328.44">
        <route edges="51o 1i 3o 53i"/>
    </vehicle>
    <vehicle id="93" depart="332.01">
        <route edges="51o 1i 3o 53i"/>
    </vehicle>
    <vehicle id="94" depart="335.58">
        <route edges="54o 4i 2o 52i"/>
    </vehicle>
    <vehicle id="95" depart="339.15">
        <route edges="52o 2i 4o 54i"/>
    </vehicle>
    <vehicle id="96" depart="342.72">
        <route edges="52o 2i 1o 51i"/>
    </vehicle>
    <vehicle id="97" depart="346.29">
        <route edges="52o 2i 3o 53i"/>
    </vehicle>
    <vehicle id="98" depart="349.86">
        <route edges="53o 3i 1o 51i"/>
    </vehicle>
    <vehicle id="99" depart="353.43">
        <route edges="54o 4i 1o 51i"/>
    </vehicle>
    <vehicle id="100" depart="357.00">
        <route edges="54o 4i 3o 53i"/>
    </vehicle>
    <vehicle id="101" depart="360.57">
        <route edges="53o 3i 2o 52i"/>
    </vehicle>
    <vehicle id="102" depart="364.14">
        <route edges="54o 4i 1o 51i"/>
    </vehicle>
    <vehicle id="103" depart="367.71">
        <route edges="52o 2i 1o 51i"/>
    </vehicle>
    <vehicle id="104" depart="371.28">
        <route edges="51o 1i 2o 52i"/>
    </vehicle>
    <vehicle id="105" depart="374.85">
        <route edges="53o 3i 2o 52i"/>
    </vehicle>
    <vehicle id="106" depart="378.42">
        <route edges="51o 1i 2o 52i"/>
    </vehicle>
    <vehicle id="107" depart="381.99">
        <route edges="53o 3i 1o 51i"/>
    </vehicle>
    <vehicle id="108" depart="385.56">
        <route edges="52o 2i 3o 53i"/>
    </vehicle>
    <vehicle id="109" depart="389.13">
        <route edges="53o 3i 2o 52i"/>
    </vehicle>
    <vehicle id="110" depart="392.70">
        <route edges="53o 3i 4o 54i"/>
    </vehicle>
    <vehicle id="111" depart="396.27">
        <route edges="53o 3i 2o 52i"/>
    </vehicle>
    <vehicle id="112" depart="399.84">
        <route edges="52o 2i 4o 54i"/>
    </vehicle>
    <vehicle id="113" depart="403.41">
        <route edges="51o 1i 4o 54i"/>
    </vehicle>
    <vehicle id="114" depart="406.98">
        <route edges="52o 2i 4o 54i"/>
    </vehicle>
    <vehicle id="115" depart="410.55">
        <route edges="53o 3i 4o 54i"/>
    </vehicle>
    <vehicle id="116" depart="414.12">
        <route edges="52o 2i 3o 53i"/>
    </vehicle>
    <vehicle id="117" depart="417.69">
        <route edges="53o 3i 2o 52i"/>
    </vehicle>
    <vehicle id="118" depart="421.26">
        <route edges="52o 2i 1o 51i"/>
    </vehicle>
    <vehicle id="119" depart="424.83">
        <route edges="51o 1i 4o 54i"/>
    </vehicle>
    <vehicle id="120" depart="428.40">
        <route edges="54o 4i 1o 51i"/>
    </vehicle>
    <vehicle id="121" depart="431.97">
        <route edges="51o 1i 3o 53i"/>
    </vehicle>
    <vehicle id="122" depart="435.54">
        <route edges="52o 2i 1o 51i"/>
    </vehicle>
    <vehicle id="123" depart="439.11">
        <route edges="54o 4i 3o 53i"/>
    </vehicle>
    <vehicle id="124" depart="442.68">
        <route edges="53o 3i 1o 51i"/>
    </vehicle>
    <vehicle id="125" depart="446.25">
        <route edges="52o 2i 3o 53i"/>
    </vehicle>
    <vehicle id="126" depart="449.82">
        <route edges="54o 4i 1o 51i"/>
    </vehicle>
    <vehicle id="127" depart="453.39">
        <route edges="52o 2i 1o 51i"/>
    </vehicle>
    <vehicle id="128" depart="456.96">
        <route edges="54o 4i 2o 52i"/>
    </vehicle>
    <vehicle id="129" depart="460.53">
        <route edges="51o 1i 2o 52i"/>
    </vehicle>
    <vehicle id="130" depart="464.10">
        <route edges="51o 1i 4o 54i"/>
    </vehicle>
    <vehicle id="131" depart="467.67">
        <route edges="54o 4i 1o 51i"/>
    </vehicle>
    <vehicle id="132" depart="471.24">
        <route edges="52o 2i 3o 53i"/>
    </vehicle>
    <vehicle id="133" depart="474.81">
        <route edges="53o 3i 4o 54i"/>
    </vehicle>
    <vehicle id="134" depart="478.38">
        <route edges="52o 2i 1o 51i"/>
    </vehicle>
    <vehicle id="135" depart="481.95">
        <route edges="53o 3i 2o 52i"/>
    </vehicle>
    <vehicle id="136" depart="485.52">
        <route edges="51o 1i 4o 54i"/>
    </vehicle>
    <vehicle id="137" depart="489.09">
        <route edges="51o 1i 2o 52i"/>
    </vehicle>
    <vehicle id="138" depart="492.66">
        <route edges="53o 3i 2o 52i"/>
    </vehicle>
    <vehicle id="139" depart="496.23">
        <route edges="53o 3i 2o 52i"/>
    </vehicle>
    <vehicle id="140" depart="499.80">
        <route edges="51o 1i 3o 53i"/>
    </vehicle>
    <vehicle id="141" depart="503.37">
        <route edges="53o 3i 1o 51i"/>
    </vehicle>
    <vehicle id="142" depart="506.94">
        <route edges="53o 3i 1o 51i"/>
    </vehicle>
    <vehicle id="143" depart="510.51">
        <route edges="52o 2i 1o 51i"/>
    </vehicle>
    <vehicle id="144" depart="514.08">
        <route edges="51o 1i 4o 54i"/>
    </vehicle>
    <vehicle id="145" depart="517.65">
        <route edges="54o 4i 2o 52i"/>
    </vehicle>
    <vehicle id="146" depart="521.22">
        <route edges="54o 4i 2o 52i"/>
    </vehicle>
    <vehicle id="147" depart="524.79">
        <route edges="51o 1i 3o 53i"/>
    </vehicle>
    <vehicle id="148" depart="528.36">
        <route edges="51o 1i 2o 52i"/>
    </vehicle>
    <vehicle id="149" depart="531.93">
        <route edges="54o 4i 2o 52i"/>
    </vehicle>
    <vehicle id="150" depart="535.50">
        <route edges="52o 2i 3o 53i"/>
    </vehicle>
    <vehicle id="151" depart="539.07">
        <route edges="53o 3i 1o 51i"/>
    </vehicle>
    <vehicle id="152" depart="542.64">
        <route edges="51o 1i 3o 53i"/>
    </vehicle>
    <vehicle id="153" depart="546.21">
        <route edges="52o 2i 3o 53i"/>
    </vehicle>
    <vehicle id="154" depart="549.78">
        <route edges="53o 3i 4o"/>
    </vehicle>
    <vehicle id="155" depart="553.35">
        <route edges="51o 1i 2o"/>
    </vehicle>
    <vehicle id="156" depart="556.92">
        <route edges="53o 3i 4o 54i"/>
    </vehicle>
    <vehicle id="157" depart="560.49">
        <route edges="54o 4i 2o 52i"/>
    </vehicle>
    <vehicle id="158" depart="564.06">
        <route edges="52o 2i 1o 51i"/>
    </vehicle>
    <vehicle id="159" depart="567.63">
        <route edges="54o 4i 2o 52i"/>
    </vehicle>
    <vehicle id="160" depart="571.20">
        <route edges="53o 3i 1o 51i"/>
    </vehicle>
    <vehicle id="161" depart="574.77">
        <route edges="54o 4i 2o 52i"/>
    </vehicle>
    <vehicle id="162" depart="578.34">
        <route edges="51o 1i 2o 52i"/>
    </vehicle>
    <vehicle id="163" depart="581.91">
        <route edges="52o 2i 3o 53i"/>
    </vehicle>
    <vehicle id="164" depart="585.48">
        <route edges="53o 3i 2o 52i"/>
    </vehicle>
    <vehicle id="165" depart="589.05">
        <route edges="4i 2o 52i"/>
    </vehicle>
    <vehicle id="166" depart="592.62">
        <route edges="53o 3i 1o 51i"/>
    </vehicle>
    <vehicle id="167" depart="596.19">
        <route edges="51o 1i 4o 54i"/>
    </vehicle>
    <vehicle id="168" depart="599.76">
        <route edges="54o 4i 1o 51i"/>
    </vehicle>
    <vehicle id="169" depart="603.33">
        <route edges="53o 3i 4o 54i"/>
    </vehicle>
    <vehicle id="170" depart="606.90">
        <route edges="53o 3i 1o 51i"/>
    </vehicle>
    <vehicle id="171" depart="610.47">
        <route edges="51o 1i 3o 53i"/>
    </vehicle>
    <vehicle id="172" depart="614.04">
        <route edges="53o 3i 2o 52i"/>
    </vehicle>
    <vehicle id="173" depart="617.61">
        <route edges="53o 3i 2o 52i"/>
    </vehicle>
    <vehicle id="174" depart="621.18">
        <route edges="54o 4i 3o 53i"/>
    </vehicle>
    <vehicle id="175" depart="624.75">
        <route edges="54o 4i 2o 52i"/>
    </vehicle>
    <vehicle id="176" depart="628.32">
        <route edges="51o 1i 3o 53i"/>
    </vehicle>
    <vehicle id="177" depart="631.89">
        <route edges="53o 3i 4o 54i"/>
    </vehicle>
    <vehicle id="178" depart="635.46">
        <route edges="52o 2i 3o 53i"/>
    </vehicle>
    <vehicle id="179" depart="639.03">
        <route edges="53o 3i 4o 54i"/>
    </vehicle>
    <vehicle id="180" depart="642.60">
        <route edges="53o 3i 2o 52i"/>
    </vehicle>
    <vehicle id="181" depart="646.17">
        <route edges="52o 2i 1o 51i"/>
    </vehicle>
    <vehicle id="182" depart="649.74">
        <route edges="52o 2i 1o 51i"/>
    </vehicle>
    <vehicle id="183" depart="653.31">
        <route edges="51o 1i 2o 52i"/>
    </vehicle>
    <vehicle id="184" depart="656.88">
        <route edges="54o 4i 3o 53i"/>
    </vehicle>
    <vehicle id="185" depart="660.45">
        <route edges="4i 2o 52i"/>
    </vehicle>
    <vehicle id="186" depart="664.02">
        <route edges="52o 2i 4o 54i"/>
    </vehicle>
    <vehicle id="187" depart="667.59">
        <route edges="51o 1i 2o 52i"/>
    </vehicle>
    <vehicle id="188" depart="671.16">
        <route edges="51o 1i 2o 52i"/>
    </vehicle>
    <vehicle id="189" depart="674.73">
        <route edges="53o 3i 2o 52i"/>
    </vehicle>
    <vehicle id="190" depart="678.30">
        <route edges="52o 2i 1o 51i"/>
    </vehicle>
    <vehicle id="191" depart="681.87">
        <route edges="51o 1i 2o 52i"/>
    </vehicle>
    <vehicle id="192" depart="685.44">
        <route edges="53o 3i 2o 52i"/>
    </vehicle>
    <vehicle id="193" depart="689.01">
        <route edges="51o 1i 3o 53i"/>
    </vehicle>
    <vehicle id="194" depart="692.58">
        <route edges="51o 1i 3o 53i"/>
    </vehicle>
    <vehicle id="195" depart="696.15">
        <route edges="54o 4i 2o 52i"/>
    </vehicle>
    <vehicle id="196" depart="699.72">
        <route edges="51o 1i 2o 52i"/>
    </vehicle>
    <vehicle id="197" depart="703.29">
        <route edges="53o 3i 1o 51i"/>
    </vehicle>
    <vehicle id="198" depart="706.86">
        <route edges="53o 3i 1o 51i"/>
    </vehicle>
    <vehicle id="199" depart="710.43">
        <route edges="54o 4i 1o 51i"/>
    </vehicle>
    <vehicle id="200" depart="714.00">
        <route edges="53o 3i 4o 54i"/>
    </vehicle>
    <vehicle id="201" depart="717.57">
        <route edges="51o 1i 4o 54i"/>
    </vehicle>
    <vehicle id="202" depart="721.14">
        <route edges="51o 1i 3o 53i"/>
    </vehicle>
    <vehicle id="203" depart="724.71">
        <route edges="51o 1i 2o 52i"/>
    </vehicle>
    <vehicle id="204" depart="728.28">
        <route edges="52o 2i 1o 51i"/>
    </vehicle>
    <vehicle id="205" depart="731.85">
        <route edges="53o 3i 2o 52i"/>
    </vehicle>
    <vehicle id="206" depart="735.42">
        <route edges="53o 3i 1o 51i"/>
    </vehicle>
    <vehicle id="207" depart="738.99">
        <route edges="51o 1i 4o 54i"/>
    </vehicle>
    <vehicle id="208" depart="742.56">
        <route edges="54o 4i 3o 53i"/>
    </vehicle>
    <vehicle id="209" depart="746.13">
        <route edges="52o 2i 1o 51i"/>
    </vehicle>
    <vehicle id="210" depart="749.70">
        <route edges="53o 3i 2o 52i"/>
    </vehicle>
    <vehicle id="211" depart="753.27">
        <route edges="51o 1i 3o 53i"/>
    </vehicle>
    <vehicle id="212" depart="756.84">
        <route edges="54o 4i 1o 51i"/>
    </vehicle>
    <vehicle id="213" depart="760.41">
        <route edges="51o 1i 4o 54i"/>
    </vehicle>
    <vehicle id="214" depart="763.98">
        <route edges="52o 2i 1o 51i"/>
    </vehicle>
    <vehicle id="215" depart="767.55">
        <route edges="51o 1i 3o 53i"/>
    </vehicle>
    <vehicle id="216" depart="771.12">
        <route edges="54o 4i 2o 52i"/>
    </vehicle>
    <vehicle id="217" depart="774.69">
        <route edges="52o 2i 1o 51i"/>
    </vehicle>
    <vehicle id="218" depart="778.26">
        <route edges="54o 4i 1o 51i"/>
    </vehicle>
    <vehicle id="219" depart="781.83">
        <route edges="52o 2i 1o 51i"/>
    </vehicle>
    <vehicle id="220" depart="785.40">
        <route edges="51o 1i 2o 52i"/>
    </vehicle>
    <vehicle id="221" depart="788.97">
        <route edges="51o 1i 2o 52i"/>
    </vehicle>
    <vehicle id="222" depart="792.54">
        <route edges="53o 3i 2o 52i"/>
    </vehicle>
    <vehicle id="223" depart="796.11">
        <route edges="54o 4i 1o 51i"/>
    </vehicle>
    <vehicle id="224" depart="799.68">
        <route edges="54o 4i 2o 52i"/>
    </vehicle>
    <vehicle id="225" depart="803.25">
        <route edges="53o 3i 4o 54i"/>
    </vehicle>
    <vehicle id="226" depart="806.82">
        <route edges="54o 4i 3o 53i"/>
    </vehicle>
    <vehicle id="227" depart="810.39">
        <route edges="52o 2i 1o 51i"/>
    </vehicle>
    <vehicle id="228" depart="813.96">
        <route edges="51o 1i 2o 52i"/>
    </vehicle>
    <vehicle id="229" depart="817.53">
        <route edges="53o 3i 1o 51i"/>
    </vehicle>
    <vehicle id="230" depart="821.10">
        <route edges="51o 1i 3o 53i"/>
    </vehicle>
    <vehicle id="231" depart="824.67">
        <route edges="54o 4i 3o 53i"/>
    </vehicle>
    <vehicle id="232" depart="828.24">
        <route edges="54o 4i 1o 51i"/>
    </vehicle>
    <vehicle id="233" depart="831.81">
        <route edges="53o 3i 4o 54i"/>
    </vehicle>
    <vehicle id="234" depart="835.38">
        <route edges="51o 1i 2o 52i"/>
    </vehicle>
    <vehicle id="235" depart="838.95">
        <route edges="53o 3i 2o 52i"/>
    </vehicle>
    <vehicle id="236" depart="842.52">
        <route edges="54o 4i 1o 51i"/>
    </vehicle>
    <vehicle id="237" depart="846.09">
        <route edges="54o 4i 2o 52i"/>
    </vehicle>
    <vehicle id="238" depart="849.66">
        <route edges="52o 2i 1o 51i"/>
    </vehicle>
    <vehicle id="239" depart="853.23">
        <route edges="53o 3i 4o 54i"/>
    </vehicle>
    <vehicle id="240" depart="856.80">
        <route edges="54o 4i 2o 52i"/>
    </vehicle>
    <vehicle id="241" depart="860.37">
        <route edges="53o 3i 2o 52i"/>
    </vehicle>
    <vehicle id="242" depart="863.94">
        <route edges="1i 3o 53i"/>
    </vehicle>
    <vehicle id="243" depart="867.51">
        <route edges="52o 2i 1o 51i"/>
    </vehicle>
    <vehicle id="244" depart="871.08">
        <route edges="53o 3i 4o 54i"/>
    </vehicle>
    <vehicle id="245" depart="874.65">
        <route edges="53o 3i 2o 52i"/>
    </vehicle>
    <vehicle id="246" depart="878.22">
        <route edges="51o 1i 3o 53i"/>
    </vehicle>
    <vehicle id="247" depart="881.79">
        <route edges="53o 3i 1o 51i"/>
    </vehicle>
    <vehicle id="248" depart="885.36">
        <route edges="51o 1i 2o 52i"/>
    </vehicle>
    <vehicle id="249" depart="888.93">
        <route edges="53o 3i 4o 54i"/>
    </vehicle>
    <vehicle id="250" depart="892.50">
        <route edges="54o 4i 1o 51i"/>
    </vehicle>
    <vehicle id="251" depart="896.07">
        <route edges="51o 1i 4o 54i"/>
    </vehicle>
    <vehicle id="252" depart="899.64">
        <route edges="52o 2i 1o 51i"/>
    </vehicle>
    <vehicle id="253" depart="903.21">
        <route edges="52o 2i 4o 54i"/>
    </vehicle>
    <vehicle id="254" depart="906.78">
        <route edges="51o 1i 2o 52i"/>
    </vehicle>
    <vehicle id="255" depart="910.35">
        <route edges="54o 4i 2o 52i"/>
    </vehicle>
    <vehicle id="256" depart="913.92">
        <route edges="53o 3i 1o 51i"/>
    </vehicle>
    <vehicle id="257" depart="917.49">
        <route edges="53o 3i 1o 51i"/>
    </vehicle>
    <vehicle id="258" depart="921.06">
        <route edges="53o 3i 4o 54i"/>
    </vehicle>
    <vehicle id="259" depart="924.63">
        <route edges="51o 1i 4o 54i"/>
    </vehicle>
    <vehicle id="260" depart="928.20">
        <route edges="52o 2i 3o 53i"/>
    </vehicle>
    <vehicle id="261" depart="931.77">
        <route edges="53o 3i 2o 52i"/>
    </vehicle>
    <vehicle id="262" depart="935.34">
        <route edges="54o 4i 2o 52i"/>
    </vehicle>
    <vehicle id="263" depart="938.91">
        <route edges="52o 2i 3o 53i"/>
    </vehicle>
    <vehicle id="264" depart="942.48">
        <route edges="52o 2i 3o 53i"/>
    </vehicle>
    <vehicle id="265" depart="946.05">
        <route edges="52o 2i 1o 51i"/>
    </vehicle>
    <vehicle id="266" depart="949.62">
        <route edges="51o 1i 4o 54i"/>
    </vehicle>
    <vehicle id="267" depart="953.19">
        <route edges="52o 2i 3o 53i"/>
    </vehicle>
    <vehicle id="268" depart="956.76">
        <route edges="53o 3i 2o 52i"/>
    </vehicle>
    <vehicle id="269" depart="960.33">
        <route edges="51o 1i 4o 54i"/>
    </vehicle>
    <vehicle id="270" depart="963.90">
        <route edges="54o 4i 2o 52i"/>
    </vehicle>
    <vehicle id="271" depart="967.47">
        <route edges="51o 1i 2o 52i"/>
    </vehicle>
    <vehicle id="272" depart="971.04">
        <route edges="54o 4i 3o 53i"/>
    </vehicle>
    <vehicle id="273" depart="974.61">
        <route edges="52o 2i 3o 53i"/>
    </vehicle>
    <vehicle id="274" depart="978.18">
        <route edges="52o 2i 4o 54i"/>
    </vehicle>
    <vehicle id="275" depart="981.75">
        <route edges="54o 4i 1o 51i"/>
    </vehicle>
    <vehicle id="276" depart="985.32">
        <route edges="54o 4i 3o 53i"/>
    </vehicle>
    <vehicle id="277" depart="988.89">
        <route edges="53o 3i 1o 51i"/>
    </vehicle>
    <vehicle id="278" depart="992.46">
        <route edges="51o 1i 2o 52i"/>
    </vehicle>
    <vehicle id="279" depart="996.03">
        <route edges="52o 2i 4o 54i"/>
    </vehicle>
    <vehicle id="280" depart="999.60">
        <route edges="53o 3i 2o 52i"/>
    </vehicle>
    <vehicle id="281" depart="1003.17">
        <route edges="52o 2i 4o 54i"/>
    </vehicle>
    <vehicle id="282" depart="1006.74">
        <route edges="54o 4i 2o 52i"/>
    </vehicle>
    <vehicle id="283" depart="1010.31">
        <route edges="51o 1i 3o 53i"/>
    </vehicle>
    <vehicle id="284" depart="1013.88">
        <route edges="52o 2i 4o 54i"/>
    </vehicle>
    <vehicle id="285" depart="1017.45">
        <route edges="54o 4i 1o 51i"/>
    </vehicle>
    <vehicle id="286" depart="1021.02">
        <route edges="53o 3i 1o 51i"/>
    </vehicle>
    <vehicle id="287" depart="1024.59">
        <route edges="3i 1o 51i"/>
    </vehicle>
    <vehicle id="288" depart="1028.16">
        <route edges="51o 1i 3o 53i"/>
    </vehicle>
    <vehicle id="289" depart="1031.73">
        <route edges="54o 4i 2o 52i"/>
    </vehicle>
    <vehicle id="290" depart="1035.30">
        <route edges="54o 4i 3o 53i"/>
    </vehicle>
    <vehicle id="291" depart="1038.87">
        <route edges="53o 3i 4o 54i"/>
    </vehicle>
    <vehicle id="292" depart="1042.44">
        <route edges="51o 1i 4o 54i"/>
    </vehicle>
    <vehicle id="293" depart="1046.01">
        <route edges="52o 2i 4o 54i"/>
    </vehicle>
    <vehicle id="294" depart="1049.58">
        <route edges="52o 2i 3o 53i"/>
    </vehicle>
    <vehicle id="295" depart="1053.15">
        <route edges="51o 1i 3o 53i"/>
    </vehicle>
    <vehicle id="296" depart="1056.72">
        <route edges="53o 3i 1o 51i"/>
    </vehicle>
    <vehicle id="297" depart="1060.29">
        <route edges="51o 1i 4o 54i"/>
    </vehicle>
    <vehicle id="298" depart="1063.86">
        <route edges="54o 4i 3o 53i"/>
    </vehicle>
    <vehicle id="299" depart="1067.43">
        <route edges="53o 3i 2o 52i"/>
    </vehicle>
    <vehicle id="300" depart="1071.00">
        <route edges="53o 3i 4o 54i"/>
    </vehicle>
    <vehicle id="301" depart="1074.57">
        <route edges="52o 2i 1o 51i"/>
    </vehicle>
    <vehicle id="302" depart="1078.14">
        <route edges="51o 1i 3o 53i"/>
    </vehicle>
    <vehicle id="303" depart="1081.71">
        <route edges="53o 3i 1o 51i"/>
    </vehicle>
    <vehicle id="304" depart="1085.28">
        <route edges="54o 4i 3o 53i"/>
    </vehicle>
    <vehicle id="305" depart="1088.85">
        <route edges="54o 4i 2o 52i"/>
    </vehicle>
    <vehicle id="306" depart="1092.42">
        <route edges="54o 4i 1o 51i"/>
    </vehicle>
    <vehicle id="307" depart="1095.99">
        <route edges="53o 3i 4o"/>
    </vehicle>
    <vehicle id="308" depart="1099.56">
        <route edges="52o 2i 3o 53i"/>
    </vehicle>
    <vehicle id="309" depart="1103.13">
        <route edges="52o 2i 3o"/>
    </vehicle>
    <vehicle id="310" depart="1106.70">
        <route edges="51o 1i 4o 54i"/>
    </vehicle>
    <vehicle id="311" depart="1110.27">
        <route edges="51o 1i 3o 53i"/>
    </vehicle>
    <vehicle id="312" depart="1113.84">
        <route edges="52o 2i 4o 54i"/>
    </vehicle>
    <vehicle id="313" depart="1117.41">