<?xml version="1.0" encoding="UTF-8"?>

<!-- generated on Sat Nov  2 14:28:44 2019 by Eclipse SUMO duarouter Version 1.2.0
<configuration xmlns:xsi="http://www.w3.org/2001/XMLSchema-instance" xsi:noNamespaceSchemaLocation="http://sumo.dlr.de/xsd/duarouterConfiguration.xsd">

    <input>
        <net-file value="networks/isolated_2_lanes.net.xml"/>
        <route-files value="demand/isolated_2_lanes.trip.xml"/>
    </input>

    <output>
        <output-file value="routes/isolated_2_lanes.rou.xml"/>
        <alternatives-output value="routes/isolated_2_lanes.rou.alt.xml"/>
    </output>

    <time>
        <begin value="0.0"/>
        <end value="3600.0"/>
    </time>

    <report>
        <no-warnings value="true"/>
        <ignore-errors value="true"/>
        <no-step-log value="true"/>
    </report>

</configuration>
-->

<routes xmlns:xsi="http://www.w3.org/2001/XMLSchema-instance" xsi:noNamespaceSchemaLocation="http://sumo.dlr.de/xsd/routes_file.xsd">
    <vehicle id="0" depart="0.00">
        <route edges="52o 2i 1o 51i 51o 1i 2o"/>
    </vehicle>
    <vehicle id="1" depart="4.00">
        <route edges="51o 1i 2o 52i"/>
    </vehicle>
    <vehicle id="2" depart="8.00">
        <route edges="54o 4i 3o 53i 53o 3i 4o 54i"/>
    </vehicle>
    <vehicle id="3" depart="12.00">
        <route edges="51o 1i 2o 52i 52o 2i 1o 51i"/>
    </vehicle>
    <vehicle id="4" depart="16.00">
        <route edges="54o 4i 1o 51i 51o 1i 2o 52i"/>
    </vehicle>
    <vehicle id="5" depart="20.00">
        <route edges="52o 2i 1o 51i"/>
    </vehicle>
    <vehicle id="6" depart="24.00">
        <route edges="52o 2i 1o 51i 51o 1i 2o 52i"/>
    </vehicle>
    <vehicle id="7" depart="28.00">
        <route edges="53o 3i 4o 54i"/>
    </vehicle>
    <vehicle id="8" depart="32.00">
        <route edges="53o 3i"/>
    </vehicle>
    <vehicle id="9" depart="36.00">
        <route edges="1i 2o 52i 52o 2i 1o 51i"/>
    </vehicle>
    <vehicle id="10" depart="40.00">
        <route edges="54o 4i 1o 51i 51o 1i 2o 52i"/>
    </vehicle>
    <vehicle id="11" depart="44.00">
        <route edges="1o 51i 51o 1i 2o 52i 52o 2i 4o 54i"/>
    </vehicle>
    <vehicle id="12" depart="48.00">
        <route edges="4i 1o 51i"/>
    </vehicle>
    <vehicle id="13" depart="52.00">
        <route edges="52o 2i 4o 54i 54o 4i 3o 53i 53o 3i"/>
    </vehicle>
    <vehicle id="14" depart="56.00">
        <route edges="54o 4i 1o 51i 51o 1i 2o 52i"/>
    </vehicle>
    <vehicle id="15" depart="60.00">
        <route edges="52o 2i"/>
    </vehicle>
    <vehicle id="16" depart="64.00">
        <route edges="53o 3i 4o 54i"/>
    </vehicle>
    <vehicle id="17" depart="68.00">
        <route edges="54o 4i 1o 51i 51o 1i 2o 52i"/>
    </vehicle>
    <vehicle id="18" depart="72.00">
        <route edges="4o 54i"/>
    </vehicle>
    <vehicle id="19" depart="76.00">
        <route edges="3i 2o 52i"/>
    </vehicle>
    <vehicle id="20" depart="80.00">
        <route edges="53o 3i 2o 52i"/>
    </vehicle>
    <vehicle id="21" depart="84.00">
        <route edges="51o 1i"/>
    </vehicle>
    <vehicle id="22" depart="88.00">
        <route edges="52o 2i 4o 54i 54o 4i 3o 53i"/>
    </vehicle>
    <vehicle id="23" depart="92.00">
        <route edges="53o 3i 2o 52i"/>
    </vehicle>
    <vehicle id="24" depart="96.00">
        <route edges="4o 54i 54o 4i 1o 51i"/>
    </vehicle>
    <vehicle id="25" depart="100.00">
        <route edges="54o 4i"/>
    </vehicle>
    <vehicle id="26" depart="104.00">
        <route edges="52o 2i 4o 54i 54o 4i 3o 53i"/>
    </vehicle>
    <vehicle id="27" depart="108.00">
        <route edges="53o 3i 4o 54i 54o 4i"/>
    </vehicle>
    <vehicle id="28" depart="112.00">
        <route edges="52o 2i 4o 54i 54o 4i 3o 53i"/>
    </vehicle>
    <vehicle id="29" depart="116.00">
        <route edges="52o 2i"/>
    </vehicle>
    <vehicle id="30" depart="120.00">
        <route edges="2o 52i 52o 2i 1o 51i 51o 1i"/>
    </vehicle>
    <vehicle id="31" depart="124.00">
        <route edges="52o 2i 4o 54i"/>
    </vehicle>
    <vehicle id="32" depart="128.00">
        <route edges="53o 3i 4o 54i"/>
    </vehicle>
    <vehicle id="33" depart="132.00">
        <route edges="2o 52i 52o 2i 1o 51i"/>
    </vehicle>
    <vehicle id="34" depart="136.00">
        <route edges="54o 4i 1o 51i"/>
    </vehicle>
    <vehicle id="35" depart="140.00">
        <route edges="54o 4i 3o 53i 53o 3i 4o 54i"/>
    </vehicle>
    <vehicle id="36" depart="144.00">
        <route edges="53o 3i 4o 54i"/>
    </vehicle>
    <vehicle id="37" depart="148.00">
        <route edges="52o 2i 1o 51i"/>
    </vehicle>
    <vehicle id="38" depart="152.00">
        <route edges="3i 4o 54i 54o 4i 1o 51i"/>
    </vehicle>
    <vehicle id="39" depart="156.00">
        <route edges="2o 52i 52o 2i 1o 51i 51o 1i 3o 53i"/>
    </vehicle>
    <vehicle id="40" depart="160.00">
        <route edges="52o 2i 4o 54i 54o 4i 3o 53i"/>
    </vehicle>
    <vehicle id="41" depart="164.00">
        <route edges="4o 54i 54o 4i 3o 53i"/>
    </vehicle>
    <vehicle id="42" depart="168.00">
        <route edges="3i 4o 54i"/>
    </vehicle>
    <vehicle id="43" depart="172.00">
        <route edges="51o 1i 3o 53i 53o 3i 4o 54i 54o 4i"/>
    </vehicle>
    <vehicle id="44" depart="176.00">
        <route edges="52o 2i 4o 54i"/>
    </vehicle>
    <vehicle id="45" depart="180.00">
        <route edges="53o 3i 2o 52i 52o 2i 1o 51i"/>
    </vehicle>
    <vehicle id="46" depart="184.00">
        <route edges="51o 1i 2o 52i 52o 2i 1o 51i"/>
    </vehicle>
    <vehicle id="47" depart="188.00">
        <route edges="53o 3i 4o 54i 54o 4i 3o 53i"/>
    </vehicle>
    <vehicle id="48" depart="192.00">
        <route edges="54o 4i 3o 53i 53o 3i 4o"/>
    </vehicle>
    <vehicle id="49" depart="196.00">
        <route edges="3i 4o 54i 54o 4i 1o"/>
    </vehicle>
    <vehicle id="50" depart="200.00">
        <route edges="51o 1i 2o 52i 52o 2i 1o"/>
    </vehicle>
    <vehicle id="51" depart="204.00">
        <route edges="54o 4i 1o 51i"/>
    </vehicle>
    <vehicle id="52" depart="208.00">
        <route edges="52o 2i 1o 51i"/>
    </vehicle>
    <vehicle id="53" depart="212.00">
        <route edges="4o 54i 54o 4i 1o 51i"/>
    </vehicle>
    <vehicle id="54" depart="216.00">
        <route edges="53o 3i 2o 52i"/>
    </vehicle>
    <vehicle id="55" depart="220.00">
        <route edges="52o 2i 4o 54i 54o 4i 3o 53i"/>
    </vehicle>
    <vehicle id="56" depart="224.00">
        <route edges="52o 2i 4o"/>
    </vehicle>
    <vehicle id="57" depart="228.00">
        <route edges="54o 4i 3o 53i"/>
    </vehicle>
    <vehicle id="58" depart="232.00">
        <route edges="53o 3i 4o 54i"/>
    </vehicle>
    <vehicle id="59" depart="236.00">
        <route edges="52o 2i 4o 54i 54o 4i 3o 53i"/>
    </vehicle>
    <vehicle id="60" depart="240.00">
        <route edges="54o 4i 3o 53i 53o 3i"/>
    </vehicle>
    <vehicle id="61" depart="244.00">
        <route edges="54o 4i 3o 53i 53o 3i 4o"/>
    </vehicle>
    <vehicle id="62" depart="248.00">
        <route edges="53o 3i 2o 52i"/>
    </vehicle>
    <vehicle id="63" depart="252.00">
        <route edges="53o 3i 2o 52i"/>
    </vehicle>
    <vehicle id="64" depart="256.00">
        <route edges="52o 2i 4o 54i 54o 4i 3o"/>
    </vehicle>
    <vehicle id="65" depart="260.00">
        <route edges="4o 54i 54o 4i 3o 53i 53o 3i 2o 52i"/>
    </vehicle>
    <vehicle id="66" depart="264.00">
        <route edges="54o 4i 3o 53i 53o 3i 4o 54i"/>
    </vehicle>
    <vehicle id="67" depart="268.00">
        <route edges="53o 3i 2o 52i 52o 2i 1o 51i"/>
    </vehicle>
    <vehicle id="68" depart="272.00">
        <route edges="52o 2i 4o 54i 54o 4i 3o 53i"/>
    </vehicle>
    <vehicle id="69" depart="276.00">
        <route edges="53o 3i"/>
    </vehicle>
    <vehicle id="70" depart="280.00">
        <route edges="3o 53i 53o 3i 4o 54i"/>
    </vehicle>
    <vehicle id="71" depart="284.00">
        <route edges="53o 3i 4o 54i 54o 4i 3o 53i"/>
    </vehicle>
    <vehicle id="72" depart="288.00">
        <route edges="54o 4i 1o 51i"/>
    </vehicle>
    <vehicle id="73" depart="292.00">
        <route edges="52o 2i 4o 54i"/>
    </vehicle>
    <vehicle id="74" depart="296.00">
        <route edges="1i 2o 52i 52o 2i 1o 51i"/>
    </vehicle>
    <vehicle id="75" depart="300.00">
        <route edges="53o 3i 4o 54i 54o 4i 3o 53i"/>
    </vehicle>
    <vehicle id="76" depart="304.00">
        <route edges="52o 2i 4o"/>
    </vehicle>
    <vehicle id="77" depart="308.00">
        <route edges="54o 4i 3o 53i 53o 3i"/>
    </vehicle>
    <vehicle id="78" depart="312.00">
        <route edges="51o 1i 2o 52i 52o 2i"/>
    </vehicle>
    <vehicle id="79" depart="316.00">
        <route edges="53o 3i 2o 52i"/>
    </vehicle>
    <vehicle id="80" depart="320.00">
        <route edges="54o 4i 3o 53i 53o 3i 4o 54i"/>
    </vehicle>
    <vehicle id="81" depart="324.00">
        <route edges="53o 3i 2o 52i 52o 2i 1o 51i 51o 1i"/>
    </vehicle>
    <vehicle id="82" depart="328.00">
        <route edges="54o 4i 1o 51i"/>
    </vehicle>
    <vehicle id="83" depart="332.00">
        <route edges="52o 2i 4o"/>
    </vehicle>
    <vehicle id="84" depart="336.00">
        <route edges="53o 3i 4o 54i"/>
    </vehicle>
    <vehicle id="85" depart="340.00">
        <route edges="1i 3o"/>
    </vehicle>
    <vehicle id="86" depart="344.00">
        <route edges="53o 3i 4o 54i 54o 4i"/>
    </vehicle>
    <vehicle id="87" depart="348.00">
        <route edges="54o 4i 1o 51i"/>
    </vehicle>
    <vehicle id="88" depart="352.00">
        <route edges="1i 2o 52i 52o 2i 4o"/>
    </vehicle>
    <vehicle id="89" depart="356.00">
        <route edges="51o 1i 3o 53i 53o 3i 4o 54i"/>
    </vehicle>
    <vehicle id="90" depart="360.00">
        <route edges="52o 2i 1o 51i 51o 1i 2o 52i"/>
    </vehicle>
    <vehicle id="91" depart="364.00">
        <route edges="53o 3i 2o 52i"/>
    </vehicle>
    <vehicle id="92" depart="368.00">
        <route edges="4i 1o 51i"/>
    </vehicle>
    <vehicle id="93" depart="372.00">
        <route edges="2o 52i 52o 2i 1o 51i"/>
    </vehicle>
    <vehicle id="94" depart="376.00">
        <route edges="51o 1i 3o 53i 53o 3i 4o 54i"/>
    </vehicle>
    <vehicle id="95" depart="380.00">
        <route edges="52o 2i 4o 54i 54o 4i 3o 53i 53o 3i"/>
    </vehicle>
    <vehicle id="96" depart="384.00">
        <route edges="52o 2i 1o 51i 51o 1i 2o"/>
    </vehicle>
    <vehicle id="97" depart="388.00">
        <route edges="54o 4i 3o 53i 53o 3i 4o 54i"/>
    </vehicle>
    <vehicle id="98" depart="392.00">
        <route edges="54o 4i 3o"/>
    </vehicle>
    <vehicle id="99" depart="396.00">
        <route edges="54o 4i 3o 53i"/>
    </vehicle>
    <vehicle id="100" depart="400.00">
        <route edges="51o 1i 3o 53i 53o 3i 4o 54i"/>
    </vehicle>
    <vehicle id="101" depart="404.00">
        <route edges="51o 1i 3o 53i"/>
    </vehicle>
    <vehicle id="102" depart="408.00">
        <route edges="53o 3i 4o 54i"/>
    </vehicle>
    <vehicle id="103" depart="412.00">
        <route edges="54o 4i 3o 53i"/>
    </vehicle>
    <vehicle id="104" depart="416.00">
        <route edges="3i"/>
    </vehicle>
    <vehicle id="105" depart="420.00">
        <route edges="51o 1i 2o 52i"/>
    </vehicle>
    <vehicle id="106" depart="424.00">
        <route edges="52o 2i 1o 51i"/>
    </vehicle>
    <vehicle id="107" depart="428.00">
        <route edges="53o 3i 4o 54i"/>
    </vehicle>
    <vehicle id="108" depart="432.00">
        <route edges="52o 2i 1o 51i 51o 1i 2o 52i"/>
    </vehicle>
    <vehicle id="109" depart="436.00">
        <route edges="51o 1i 2o"/>
    </vehicle>
    <vehicle id="110" depart="440.00">
        <route edges="51o 1i 2o 52i 52o 2i 1o"/>
    </vehicle>
    <vehicle id="111" depart="444.00">
        <route edges="53o 3i 4o 54i 54o 4i 3o 53i"/>
    </vehicle>
    <vehicle id="112" depart="448.00">
        <route edges="53o 3i 2o 52i 52o 2i 1o 51i"/>
    </vehicle>
    <vehicle id="113" depart="452.00">
        <route edges="51o 1i 3o 53i 53o 3i 4o 54i"/>
    </vehicle>
    <vehicle id="114" depart="456.00">
        <route edges="1o 51i"/>
    </vehicle>
    <vehicle id="115" depart="460.00">
        <route edges="51o 1i 2o 52i 52o 2i 1o"/>
    </vehicle>
    <vehicle id="116" depart="464.00">
        <route edges="3i 2o 52i"/>
    </vehicle>
    <vehicle id="117" depart="468.00">
        <route edges="1i 2o 52i"/>
    </vehicle>
    <vehicle id="118" depart="472.00">
        <route edges="51o 1i 2o 52i"/>
    </vehicle>
    <vehicle id="119" depart="476.00">
        <route edges="54o 4i 3o 53i 53o 3i 4o 54i"/>
    </vehicle>
    <vehicle id="120" depart="480.00">
        <route edges="53o 3i 2o 52i 52o 2i 1o 51i"/>
    </vehicle>
    <vehicle id="121" depart="484.00">
        <route edges="52o 2i 1o 51i"/>
    </vehicle>
    <vehicle id="122" depart="488.00">
        <route edges="2i 1o 51i 51o 1i 2o 52i"/>
    </vehicle>
    <vehicle id="123" depart="492.00">
        <route edges="1o 51i"/>
    </vehicle>
    <vehicle id="124" depart="496.00">
        <route edges="54o 4i 1o 51i 51o 1i 2o"/>
    </vehicle>
    <vehicle id="125" depart="500.00">
        <route edges="2o 52i"/>
    </vehicle>
    <vehicle id="126" depart="504.00">
        <route edges="4i 1o 51i"/>
    </vehicle>
    <vehicle id="127" depart="508.00">
        <route edges="54o 4i 3o 53i"/>
    </vehicle>
    <vehicle id="128" depart="512.00">
        <route edges="54o 4i 3o 53i 53o 3i"/>
    </vehicle>
    <vehicle id="129" depart="516.00">
        <route edges="54o 4i 1o 51i"/>
    </vehicle>
    <vehicle id="130" depart="520.00">
        <route edges="4o 54i 54o 4i 3o 53i"/>
    </vehicle>
    <vehicle id="131" depart="524.00">
        <route edges="52o 2i 1o 51i 51o 1i 2o 52i"/>
    </vehicle>
    <vehicle id="132" depart="528.00">
        <route edges="54o 4i 1o 51i"/>
    </vehicle>
    <vehicle id="133" depart="532.00">
        <route edges="53o 3i 2o 52i"/>
    </vehicle>
    <vehicle id="134" depart="536.00">
        <route edges="4i 1o 51i"/>
    </vehicle>
    <vehicle id="135" depart="540.00">
        <route edges="51o 1i 2o 52i 52o 2i 1o 51i"/>
    </vehicle>
    <vehicle id="136" depart="544.00">
        <route edges="54o 4i 1o 51i 51o 1i 2o 52i 52o 2i"/>
    </vehicle>
    <vehicle id="137" depart="548.00">
        <route edges="54o 4i 3o 53i 53o 3i 4o 54i"/>
    </vehicle>
    <vehicle id="138" depart="552.00">
        <route edges="52o 2i 4o 54i"/>
    </vehicle>
    <vehicle id="139" depart="556.00">
        <route edges="51o 1i 2o 52i 52o 2i 1o 51i"/>
    </vehicle>
    <vehicle id="140" depart="560.00">
        <route edges="2o"/>
    </vehicle>
    <vehicle id="141" depart="564.00">
        <route edges="3o 53i 53o 3i 4o 54i 54o 4i 1o"/>
    </vehicle>
    <vehicle id="142" depart="568.00">
        <route edges="53o 3i 4o 54i 54o 4i 3o 53i"/>
    </vehicle>
    <vehicle id="143" depart="572.00">
        <route edges="3o 53i 53o 3i 4o 54i"/>
    </vehicle>
    <vehicle id="144" depart="576.00">
        <route edges="53o 3i 2o 52i 52o 2i 1o 51i"/>
    </vehicle>
    <vehicle id="145" depart="580.00">
        <route edges="53o 3i 2o 52i 52o 2i 1o"/>
    </vehicle>
    <vehicle id="146" depart="584.00">
        <route edges="1i 2o 52i 52o 2i 1o 51i"/>
    </vehicle>
    <vehicle id="147" depart="588.00">
        <route edges="53o 3i 2o 52i"/>
    </vehicle>
    <vehicle id="148" depart="592.00">
        <route edges="53o 3i 4o 54i 54o 4i"/>
    </vehicle>
    <vehicle id="149" depart="596.00">
        <route edges="51o 1i 2o 52i"/>
    </vehicle>
    <vehicle id="150" depart="600.00">
        <route edges="2o 52i"/>
    </vehicle>
    <vehicle id="151" depart="604.00">
        <route edges="53o 3i 2o 52i 52o 2i"/>
    </vehicle>
    <vehicle id="152" depart="608.00">
        <route edges="53o 3i 4o 54i 54o 4i"/>
    </vehicle>
    <vehicle id="153" depart="612.00">
        <route edges="53o 3i 2o 52i"/>
    </vehicle>
    <vehicle id="154" depart="616.00">
        <route edges="2o 52i"/>
    </vehicle>
    <vehicle id="155" depart="620.00">
        <route edges="53o 3i 4o 54i"/>
    </vehicle>
    <vehicle id="156" depart="624.00">
        <route edges="54o 4i 3o 53i 53o 3i 4o"/>
    </vehicle>
    <vehicle id="157" depart="628.00">
        <route edges="4i 3o 53i 53o 3i 4o 54i"/>
    </vehicle>
    <vehicle id="158" depart="632.00">
        <route edges="54o 4i 1o 51i"/>
    </vehicle>
    <vehicle id="159" depart="636.00">
        <route edges="52o 2i 4o 54i 54o 4i 3o"/>
    </vehicle>
    <vehicle id="160" depart="640.00">
        <route edges="1i 2o 52i 52o 2i 1o 51i"/>
    </vehicle>
    <vehicle id="161" depart="644.00">
        <route edges="54o 4i"/>
    </vehicle>
    <vehicle id="162" depart="648.00">
        <route edges="53o 3i 2o 52i 52o 2i 1o 51i"/>
    </vehicle>
    <vehicle id="163" depart="652.00">
        <route edges="53o 3i 4o 54i 54o 4i 3o 53i"/>
    </vehicle>
    <vehicle id="164" depart="656.00">
        <route edges="3i 2o 52i 52o 2i"/>
    </vehicle>
    <vehicle id="165" depart="660.00">
        <route edges="51o 1i 3o 53i 53o 3i 4o 54i"/>
    </vehicle>
    <vehicle id="166" depart="664.00">
        <route edges="2i 1o 51i 51o 1i 3o 53i"/>
    </vehicle>
    <vehicle id="167" depart="668.00">
        <route edges="54o 4i 1o 51i 51o 1i 2o 52i"/>
    </vehicle>
    <vehicle id="168" depart="672.00">
        <route edges="54o 4i 3o 53i 53o 3i 4o 54i"/>
    </vehicle>
    <vehicle id="169" depart="676.00">
        <route edges="52o 2i 1o 51i"/>
    </vehicle>
    <vehicle id="170" depart="680.00">
        <route edges="52o 2i 4o 54i 54o 4i 3o 53i"/>
    </vehicle>
    <vehicle id="171" depart="684.00">
        <route edges="3o 53i 53o 3i 4o 54i 54o 4i 1o 51i"/>
    </vehicle>
    <vehicle id="172" depart="688.00">
        <route edges="51o 1i 2o 52i 52o 2i 1o 51i"/>
    </vehicle>
    <vehicle id="173" depart="692.00">
        <route edges="51o 1i 3o 53i 53o 3i 4o 54i"/>
    </vehicle>
    <vehicle id="174" depart="696.00">
        <route edges="54o 4i"/>
    </vehicle>
    <vehicle id="175" depart="700.00">
        <route edges="4o 54i 54o 4i 3o 53i 53o 3i 2o"/>
    </vehicle>
    <vehicle id="176" depart="704.00">
        <route edges="54o 4i 1o 51i"/>
    </vehicle>
    <vehicle id="177" depart="708.00">
        <route edges="54o 4i 3o 53i"/>
    </vehicle>
    <vehicle id="178" depart="712.00">
        <route edges="54o 4i 3o"/>
    </vehicle>
    <vehicle id="179" depart="716.00">
        <route edges="2i 1o 51i 51o 1i 2o 52i"/>
    </vehicle>
    <vehicle id="180" depart="720.00">
        <route edges="4o 54i 54o 4i 3o 53i 53o 3i"/>
    </vehicle>
    <vehicle id="181" depart="724.00">
        <route edges="51o 1i 2o"/>
    </vehicle>
    <vehicle id="182" depart="728.00">
        <route edges="53o 3i 2o 52i 52o 2i 1o 51i"/>
    </vehicle>
    <vehicle id="183" depart="732.00">
        <route edges="52o 2i 4o 54i 54o 4i"/>
    </vehicle>
    <vehicle id="184" depart="736.00">
        <route edges="51o 1i 2o 52i"/>
    </vehicle>
    <vehicle id="185" depart="740.00">
        <route edges="51o 1i 3o 53i 53o 3i 4o 54i"/>
    </vehicle>
    <vehicle id="186" depart="744.00">
        <route edges="2i 1o 51i"/>
    </vehicle>
    <vehicle id="187" depart="748.00">
        <route edges="53o 3i 4o 54i 54o 4i"/>
    </vehicle>
    <vehicle id="188" depart="752.00">
        <route edges="52o 2i 4o 54i 54o 4i 3o 53i"/>
    </vehicle>
    <vehicle id="189" depart="756.00">
        <route edges="51o 1i 2o 52i 52o 2i 1o 51i"/>
    </vehicle>
    <vehicle id="190" depart="760.00">
        <route edges="52o 2i 1o 51i"/>
    </vehicle>
    <vehicle id="191" depart="764.00">
        <route edges="54o 4i 3o 53i 53o 3i 4o 54i"/>
    </vehicle>
    <vehicle id="192" depart="768.00">
        <route edges="51o 1i 3o 53i 53o 3i 4o 54i"/>
    </vehicle>
    <vehicle id="193" depart="772.00">
        <route edges="54o 4i 3o 53i 53o 3i 4o 54i"/>
    </vehicle>
    <vehicle id="194" depart="776.00">
        <route edges="54o 4i 1o"/>
    </vehicle>
    <vehicle id="195" depart="780.00">
        <route edges="51o 1i 3o 53i"/>
    </vehicle>
    <vehicle id="196" depart="784.00">
        <route edges="51o 1i 2o 52i"/>
    </vehicle>
    <vehicle id="197" depart="788.00">
        <route edges="53o 3i 4o 54i 54o 4i"/>
    </vehicle>
    <vehicle id="198" depart="792.00">
        <route edges="51o 1i 2o 52i"/>
    </vehicle>
    <vehicle id="199" depart="796.00">
        <route edges="51o 1i 3o 53i 53o 3i 4o 54i"/>
    </vehicle>
    <vehicle id="200" depart="800.00">
        <route edges="52o 2i 4o 54i 54o 4i 3o 53i"/>
    </vehicle>
    <vehicle id="201" depart="804.00">
        <route edges="51o 1i 3o 53i 53o 3i 4o 54i"/>
    </vehicle>
    <vehicle id="202" depart="808.00">
        <route edges="53o 3i 4o 54i 54o 4i 3o 53i"/>
    </vehicle>
    <vehicle id="203" depart="812.00">
        <route edges="52o 2i 1o 51i"/>
    </vehicle>
    <vehicle id="204" depart="816.00">
        <route edges="2i 4o 54i"/>
    </vehicle>
    <vehicle id="205" depart="820.00">
        <route edges="53o 3i 2o 52i 52o 2i 1o 51i 51o 1i"/>
    </vehicle>
    <vehicle id="206" depart="824.00">
        <route edges="2o 52i 52o 2i 1o 51i 51o 1i 3o"/>
    </vehicle>
    <vehicle id="207" depart="828.00">
        <route edges="52o 2i 1o 51i 51o 1i 2o 52i"/>
    </vehicle>
    <vehicle id="208" depart="832.00">
        <route edges="3o 53i"/>
    </vehicle>
    <vehicle id="209" depart="836.00">
        <route edges="52o 2i 1o 51i 51o 1i 2o 52i"/>
    </vehicle>
    <vehicle id="210" depart="840.00">
        <route edges="53o 3i 4o 54i"/>
    </vehicle>
    <vehicle id="211" depart="844.00">
        <route edges="54o 4i 1o 51i 51o 1i"/>
    </vehicle>
    <vehicle id="212" depart="848.00">
        <route edges="53o 3i 4o 54i"/>
    </vehicle>
    <vehicle id="213" depart="852.00">
        <route edges="51o 1i 3o 53i 53o 3i 4o"/>
    </vehicle>
    <vehicle id="214" depart="856.00">
        <route edges="3i 4o 54i"/>
    </vehicle>
    <vehicle id="215" depart="860.00">
        <route edges="3o 53i 53o 3i 4o 54i"/>
    </vehicle>
    <vehicle id="216" depart="864.00">
        <route edges="2i 1o 51i 51o 1i 2o 52i"/>
    </vehicle>
    <vehicle id="217" depart="868.00">
        <route edges="54o 4i 1o 51i"/>
    </vehicle>
    <vehicle id="218" depart="872.00">
        <route edges="54o 4i 1o 51i"/>
    </vehicle>
    <vehicle id="219" depart="876.00">
        <route edges="3o 53i 53o 3i 4o 54i 54o 4i 1o 51i"/>
    </vehicle>
    <vehicle id="220" depart="880.00">
        <route edges="52o 2i 1o 51i"/>
    </vehicle>
    <vehicle id="221" depart="884.00">
        <route edges="52o 2i 4o 54i"/>
    </vehicle>
    <vehicle id="222" depart="888.00">
        <route edges="53o 3i 4o 54i 54o 4i 3o"/>
    </vehicle>
    <vehicle id="223" depart="892.00">
        <route edges="1o 51i"/>
    </vehicle>
    <vehicle id="224" depart="896.00">
        <route edges="2o 52i 52o 2i 1o 51i 51o 1i 3o 53i"/>
    </vehicle>
    <vehicle id="225" depart="900.00">
        <route edges="53o 3i 4o 54i"/>
    </vehicle>
    <vehicle id="226" depart="904.00">
        <route edges="53o 3i"/>
    </vehicle>
    <vehicle id="227" depart="908.00">
        <route edges="4i 1o 51i 51o 1i"/>
    </vehicle>
    <vehicle id="228" depart="912.00">
        <route edges="54o 4i 3o 53i 53o 3i 4o 54i"/>
    </vehicle>
    <vehicle id="229" depart="916.00">
        <route edges="54o 4i 1o 51i 51o 1i 2o"/>
    </vehicle>
    <vehicle id="230" depart="920.00">
        <route edges="54o 4i 3o 53i 53o 3i"/>
    </vehicle>
    <vehicle id="231" depart="924.00">
        <route edges="53o 3i 4o"/>
    </vehicle>
    <vehicle id="232" depart="928.00">
        <route edges="51o 1i 3o 53i 53o 3i 4o 54i"/>
    </vehicle>
    <vehicle id="233" depart="932.00">
        <route edges="51o 1i 2o 52i 52o 2i"/>
    </vehicle>
    <vehicle id="234" depart="936.00">
        <route edges="54o 4i 1o 51i"/>
    </vehicle>
    <vehicle id="235" depart="940.00">
        <route edges="51o 1i 3o 53i 53o 3i 4o 54i 54o 4i"/>
    </vehicle>
    <vehicle id="236" depart="944.00">
        <route edges="52o 2i 4o 54i 54o 4i 3o 53i"/>
    </vehicle>
    <vehicle id="237" depart="948.00">
        <route edges="54o 4i 1o 51i 51o 1i 2o 52i"/>
    </vehicle>
    <vehicle id="238" depart="952.00">
        <route edges="1i 2o 52i 52o 2i 4o 54i"/>
    </vehicle>
    <vehicle id="239" depart="956.00">
        <route edges="51o 1i 2o 52i 52o 2i 1o"/>
    </vehicle>
    <vehicle id="240" depart="960.00">
        <route edges="53o 3i 2o 52i 52o 2i 1o 51i"/>
    </vehicle>
    <vehicle id="241" depart="964.00">
        <route edges="53o 3i 2o 52i 52o 2i 1o 51i"/>
    </vehicle>
    <vehicle id="242" depart="968.00">
        <route edges="54o 4i 3o 53i"/>
    </vehicle>
    <vehicle id="243" depart="972.00">
        <route edges="51o 1i 2o 52i"/>
    </vehicle>
    <vehicle id="244" depart="976.00">
        <route edges="3o 53i 53o 3i 4o 54i"/>
    </vehicle>
    <vehicle id="245" depart="980.00">
        <route edges="53o 3i 2o 52i 52o 2i"/>
    </vehicle>
    <vehicle id="246" depart="984.00">
        <route edges="54o 4i 1o 51i"/>
    </vehicle>
    <vehicle id="247" depart="988.00">
        <route edges="3i 4o 54i 54o 4i 1o 51i 51o 1i"/>
    </vehicle>
    <vehicle id="248" depart="992.00">
        <route edges="52o 2i 4o 54i"/>
    </vehicle>
    <vehicle id="249" depart="996.00">
        <route edges="51o 1i 2o 52i 52o 2i 1o 51i"/>
    </vehicle>
    <vehicle id="250" depart="1000.00">
        <route edges="51o 1i 3o 53i 53o 3i"/>
    </vehicle>
    <vehicle id="251" depart="1004.00">
        <route edges="51o 1i 3o 53i 53o 3i 4o 54i"/>
    </vehicle>
    <vehicle id="252" depart="1008.00">
        <route edges="51o 1i 3o 53i 53o 3i"/>
    </vehicle>
    <vehicle id="253" depart="1012.00">
        <route edges="51o 1i 2o 52i 52o 2i 1o 51i"/>
    </vehicle>
    <vehicle id="254" depart="1016.00">
        <route edges="1i 2o 52i 52o 2i 4o 54i"/>
    </vehicle>
    <vehicle id="255" depart="1020.00">
        <route edges="1o"/>
    </vehicle>
    <vehicle id="256" depart="1024.00">
        <route edges="53o 3i 4o 54i"/>
    </vehicle>
    <vehicle id="257" depart="1028.00">
        <route edges="2i 1o 51i 51o 1i 2o"/>
    </vehicle>
    <vehicle id="258" depart="1032.00">
        <route edges="53o 3i 2o 52i 52o 2i 1o"/>
    </vehicle>
    <vehicle id="259" depart="1036.00">
        <route edges="4i 3o 53i 53o 3i 2o"/>
    </vehicle>
    <vehicle id="260" depart="1040.00">
        <route edges="51o 1i 2o 52i 52o 2i 1o"/>
    </vehicle>
    <vehicle id="261" depart="1044.00">
        <route edges="3o 53i"/>
    </vehicle>
    <vehicle id="262" depart="1048.00">
        <route edges="2i 4o 54i 54o 4i"/>
    </vehicle>
    <vehicle id="263" depart="1052.00">
        <route edges="3i 4o 54i"/>
    </vehicle>
    <vehicle id="264" depart="1056.00">
        <route edges="1o 51i"/>
    </vehicle>
    <vehicle id="265" depart="1060.00">
        <route edges="3i 2o 52i"/>
    </vehicle>
    <vehicle id="266" depart="1064.00">
        <route edges="54o 4i 3o 53i 53o 3i 4o"/>
    </vehicle>
    <vehicle id="267" depart="1068.00">
        <route edges="51o 1i 3o 53i"/>
    </vehicle>
    <vehicle id="268" depart="1072.00">
        <route edges="53o 3i 4o"/>
    </vehicle>
    <vehicle id="269" depart="1076.00">
        <route edges="51o 1i 3o 53i 53o 3i 4o 54i"/>
    </vehicle>
    <vehicle id="270" depart="1080.00">
        <route edges="51o 1i 2o 52i"/>
    </vehicle>
    <vehicle id="271" depart="1084.00">
        <route edges="1i 2o 52i 52o 2i 1o"/>
    </vehicle>
    <vehicle id="272" depart="1088.00">
        <route edges="53o 3i 4o 54i"/>
    </vehicle>
    <vehicle id="273" depart="1092.00">
        <route edges="52o 2i 4o 54i 54o 4i 3o 53i"/>
    </vehicle>
    <vehicle id="274" depart="1096.00">
        <route edges="52o 2i 4o 54i"/>
    </vehicle>
    <vehicle id="275" depart="1100.00">
        <route edges="54o 4i 1o 51i 51o 1i 2o 52i"/>
    </vehicle>
    <vehicle id="276" depart="1104.00">
        <route edges="2o 52i 52o 2i 1o 51i 51o 1i 3o 53i"/>
    </vehicle>
    <vehicle id="277" depart="1108.00">
        <route edges="3i 4o 54i"/>
    </vehicle>
    <vehicle id="278" depart="1112.00">
        <route edges="51o 1i 2o"/>
    </vehicle>
    <vehicle id="279" depart="1116.00">
        <route edges="53o 3i 2o 52i"/>
    </vehicle>
    <vehicle id="280" depart="1120.00">
        <route edges="4o 54i"/>
    </vehicle>
    <vehicle id="281" depart="1124.00">
        <route edges="3o 53i 53o 3i 4o"/>
    </vehicle>
    <vehicle id="282" depart="1128.00">
        <route edges="51o 1i 2o 52i"/>
    </vehicle>
    <vehicle id="283" depart="1132.00">
        <route edges="53o 3i 2o 52i 52o 2i 1o 51i"/>
    </vehicle>
    <vehicle id="284" depart="1136.00">
        <route edges="4o 54i"/>
    </vehicle>
    <vehicle id="285" depart="1140.00">
        <route edges="1o 51i 51o 1i 3o 53i 53o 3i"/>
    </vehicle>
    <vehicle id="286" depart="1144.00">
        <route edges="4i 3o 53i"/>
    </vehicle>
    <vehicle id="287" depart="1148.00">
        <route edges="52o 2i 1o"/>
    </vehicle>
    <vehicle id="288" depart="1152.00">
        <route edges="51o 1i 2o 52i 52o 2i 1o 51i"/>
    </vehicle>
    <vehicle id="289" depart="1156.00">
        <route edges="2o 52i 52o 2i 1o 51i"/>
    </vehicle>
    <vehicle id="290" depart="1160.00">
        <route edges="51o 1i 3o 53i"/>
    </vehicle>
    <vehicle id="291" depart="1164.00">
        <route edges="53o 3i 2o 52i 52o 2i 1o"/>
    </vehicle>
    <vehicle id="292" depart="1168.00">
        <route edges="54o 4i 3o 53i"/>
    </vehicle>
    <vehicle id="293" depart="1172.00">
        <route edges="3o 53i 53o 3i 2o"/>
    </vehicle>
    <vehicle id="294" depart="1176.00">