<?xml version="1.0" encoding="UTF-8"?>

<!-- generated on Sun Nov 10 01:45:16 2019 by Eclipse SUMO duarouter Version 1.2.0
<configuration xmlns:xsi="http://www.w3.org/2001/XMLSchema-instance" xsi:noNamespaceSchemaLocation="http://sumo.dlr.de/xsd/duarouterConfiguration.xsd">

    <input>
        <net-file value="networks/isolated_3_lanes_4_stages.net.xml"/>
        <route-files value="demand/isolated_3_lanes_final.trip.xml"/>
    </input>

    <output>
        <output-file value="routes/isolated_3_lanes_final.rou.xml"/>
        <alternatives-output value="routes/isolated_3_lanes_final.rou.alt.xml"/>
    </output>

</configuration>
-->

<routes xmlns:xsi="http://www.w3.org/2001/XMLSchema-instance" xsi:noNamespaceSchemaLocation="http://sumo.dlr.de/xsd/routes_file.xsd">
    <vehicle id="1_0" depart="0.00">
        <route edges="52o 2i 3o 53i"/>
    </vehicle>
    <vehicle id="1_1" depart="7.14">
        <route edges="54o 4i 3o 53i"/>
    </vehicle>
    <vehicle id="1_2" depart="14.29">
        <route edges="54o 4i 1o 51i"/>
    </vehicle>
    <vehicle id="1_3" depart="21.43">
        <route edges="54o 4i 2o 52i"/>
    </vehicle>
    <vehicle id="1_4" depart="28.57">
        <route edges="53o 3i 2o 52i"/>
    </vehicle>
    <vehicle id="1_5" depart="35.71">
        <route edges="52o 2i 4o 54i"/>
    </vehicle>
    <vehicle id="1_6" depart="42.86">
        <route edges="51o 1i 3o 53i"/>
    </vehicle>
    <vehicle id="1_7" depart="50.00">
        <route edges="53o 3i 1o 51i"/>
    </vehicle>
    <vehicle id="1_8" depart="57.14">
        <route edges="53o 3i 4o 54i"/>
    </vehicle>
    <vehicle id="1_9" depart="64.29">
        <route edges="51o 1i 2o 52i"/>
    </vehicle>
    <vehicle id="1_10" depart="71.43">
        <route edges="52o 2i 1o 51i"/>
    </vehicle>
    <vehicle id="1_11" depart="78.57">
        <route edges="52o 2i 1o 51i"/>
    </vehicle>
    <vehicle id="1_12" depart="85.71">
        <route edges="54o 4i 3o 53i"/>
    </vehicle>
    <vehicle id="1_13" depart="92.86">
        <route edges="54o 4i 2o 52i"/>
    </vehicle>
    <vehicle id="1_14" depart="100.00">
        <route edges="51o 1i 4o 54i"/>
    </vehicle>
    <vehicle id="1_15" depart="107.14">
        <route edges="54o 4i 2o 52i"/>
    </vehicle>
    <vehicle id="1_16" depart="114.29">
        <route edges="51o 1i 2o 52i"/>
    </vehicle>
    <vehicle id="1_17" depart="121.43">
        <route edges="52o 2i 4o 54i"/>
    </vehicle>
    <vehicle id="1_18" depart="128.57">
        <route edges="51o 1i 2o 52i"/>
    </vehicle>
    <vehicle id="1_19" depart="135.71">
        <route edges="51o 1i 2o 52i"/>
    </vehicle>
    <vehicle id="1_20" depart="142.86">
        <route edges="54o 4i 2o 52i"/>
    </vehicle>
    <vehicle id="1_21" depart="150.00">
        <route edges="54o 4i 3o 53i"/>
    </vehicle>
    <vehicle id="1_22" depart="157.14">
        <route edges="52o 2i 4o 54i"/>
    </vehicle>
    <vehicle id="1_23" depart="164.29">
        <route edges="51o 1i 3o 53i"/>
    </vehicle>
    <vehicle id="1_24" depart="171.43">
        <route edges="52o 2i 3o 53i"/>
    </vehicle>
    <vehicle id="1_25" depart="178.57">
        <route edges="52o 2i 3o 53i"/>
    </vehicle>
    <vehicle id="1_26" depart="185.71">
        <route edges="51o 1i 3o 53i"/>
    </vehicle>
    <vehicle id="1_27" depart="192.86">
        <route edges="53o 3i 2o 52i"/>
    </vehicle>
    <vehicle id="1_28" depart="200.00">
        <route edges="51o 1i 4o 54i"/>
    </vehicle>
    <vehicle id="1_29" depart="207.14">
        <route edges="54o 4i 3o 53i"/>
    </vehicle>
    <vehicle id="1_30" depart="214.29">
        <route edges="53o 3i 2o 52i"/>
    </vehicle>
    <vehicle id="1_31" depart="221.43">
        <route edges="53o 3i 1o 51i"/>
    </vehicle>
    <vehicle id="1_32" depart="228.57">
        <route edges="52o 2i 4o 54i"/>
    </vehicle>
    <vehicle id="1_33" depart="235.71">
        <route edges="51o 1i 3o 53i"/>
    </vehicle>
    <vehicle id="1_34" depart="242.86">
        <route edges="51o 1i 4o 54i"/>
    </vehicle>
    <vehicle id="1_35" depart="250.00">
        <route edges="52o 2i 3o 53i"/>
    </vehicle>
    <vehicle id="1_36" depart="257.14">
        <route edges="51o 1i 4o 54i"/>
    </vehicle>
    <vehicle id="1_37" depart="264.29">
        <route edges="54o 4i 3o 53i"/>
    </vehicle>
    <vehicle id="1_38" depart="271.43">
        <route edges="51o 1i 4o 54i"/>
    </vehicle>
    <vehicle id="1_39" depart="278.57">
        <route edges="54o 4i 3o 53i"/>
    </vehicle>
    <vehicle id="1_40" depart="285.71">
        <route edges="54o 4i 3o 53i"/>
    </vehicle>
    <vehicle id="1_41" depart="292.86">
        <route edges="54o 4i 1o 51i"/>
    </vehicle>
    <vehicle id="1_42" depart="300.00">
        <route edges="51o 1i 4o 54i"/>
    </vehicle>
    <vehicle id="1_43" depart="307.14">
        <route edges="51o 1i 3o 53i"/>
    </vehicle>
    <vehicle id="1_44" depart="314.29">
        <route edges="52o 2i 1o 51i"/>
    </vehicle>
    <vehicle id="1_45" depart="321.43">
        <route edges="51o 1i 2o 52i"/>
    </vehicle>
    <vehicle id="1_46" depart="328.57">
        <route edges="51o 1i 4o 54i"/>
    </vehicle>
    <vehicle id="1_47" depart="335.71">
        <route edges="54o 4i 3o 53i"/>
    </vehicle>
    <vehicle id="1_48" depart="342.86">
        <route edges="53o 3i 4o 54i"/>
    </vehicle>
    <vehicle id="1_49" depart="350.00">
        <route edges="53o 3i 1o 51i"/>
    </vehicle>
    <vehicle id="1_50" depart="357.14">
        <route edges="53o 3i 2o 52i"/>
    </vehicle>
    <vehicle id="1_51" depart="364.29">
        <route edges="54o 4i 2o 52i"/>
    </vehicle>
    <vehicle id="1_52" depart="371.43">
        <route edges="54o 4i 1o 51i"/>
    </vehicle>
    <vehicle id="1_53" depart="378.57">
        <route edges="52o 2i 1o 51i"/>
    </vehicle>
    <vehicle id="1_54" depart="385.71">
        <route edges="53o 3i 4o 54i"/>
    </vehicle>
    <vehicle id="1_55" depart="392.86">
        <route edges="52o 2i 3o 53i"/>
    </vehicle>
    <vehicle id="1_56" depart="400.00">
        <route edges="53o 3i 1o 51i"/>
    </vehicle>
    <vehicle id="1_57" depart="407.14">
        <route edges="52o 2i 1o 51i"/>
    </vehicle>
    <vehicle id="1_58" depart="414.29">
        <route edges="54o 4i 3o 53i"/>
    </vehicle>
    <vehicle id="1_59" depart="421.43">
        <route edges="53o 3i 4o 54i"/>
    </vehicle>
    <vehicle id="1_60" depart="428.57">
        <route edges="54o 4i 1o 51i"/>
    </vehicle>
    <vehicle id="1_61" depart="435.71">
        <route edges="52o 2i 3o 53i"/>
    </vehicle>
    <vehicle id="1_62" depart="442.86">
        <route edges="52o 2i 4o 54i"/>
    </vehicle>
    <vehicle id="1_63" depart="450.00">
        <route edges="51o 1i 4o 54i"/>
    </vehicle>
    <vehicle id="1_64" depart="457.14">
        <route edges="51o 1i 2o 52i"/>
    </vehicle>
    <vehicle id="1_65" depart="464.29">
        <route edges="53o 3i 4o 54i"/>
    </vehicle>
    <vehicle id="1_66" depart="471.43">
        <route edges="52o 2i 1o 51i"/>
    </vehicle>
    <vehicle id="1_67" depart="478.57">
        <route edges="51o 1i 4o 54i"/>
    </vehicle>
    <vehicle id="1_68" depart="485.71">
        <route edges="52o 2i 1o 51i"/>
    </vehicle>
    <vehicle id="1_69" depart="492.86">
        <route edges="52o 2i 1o 51i"/>
    </vehicle>
    <vehicle id="1_70" depart="500.00">
        <route edges="52o 2i 1o 51i"/>
    </vehicle>
    <vehicle id="1_71" depart="507.14">
        <route edges="53o 3i 4o 54i"/>
    </vehicle>
    <vehicle id="1_72" depart="514.29">
        <route edges="51o 1i 3o 53i"/>
    </vehicle>
    <vehicle id="1_73" depart="521.43">
        <route edges="53o 3i 2o 52i"/>
    </vehicle>
    <vehicle id="1_74" depart="528.57">
        <route edges="53o 3i 2o 52i"/>
    </vehicle>
    <vehicle id="1_75" depart="535.71">
        <route edges="52o 2i 1o 51i"/>
    </vehicle>
    <vehicle id="1_76" depart="542.86">
        <route edges="54o 4i 3o 53i"/>
    </vehicle>
    <vehicle id="1_77" depart="550.00">
        <route edges="54o 4i 2o 52i"/>
    </vehicle>
    <vehicle id="1_78" depart="557.14">
        <route edges="53o 3i 1o 51i"/>
    </vehicle>
    <vehicle id="1_79" depart="564.29">
        <route edges="53o 3i 1o 51i"/>
    </vehicle>
    <vehicle id="1_80" depart="571.43">
        <route edges="53o 3i 1o 51i"/>
    </vehicle>
    <vehicle id="1_81" depart="578.57">
        <route edges="52o 2i 3o 53i"/>
    </vehicle>
    <vehicle id="1_82" depart="585.71">
        <route edges="51o 1i 4o 54i"/>
    </vehicle>
    <vehicle id="1_83" depart="592.86">
        <route edges="53o 3i 4o 54i"/>
    </vehicle>
    <vehicle id="1_84" depart="600.00">
        <route edges="52o 2i 1o 51i"/>
    </vehicle>
    <vehicle id="1_85" depart="607.14">
        <route edges="54o 4i 3o 53i"/>
    </vehicle>
    <vehicle id="1_86" depart="614.29">
        <route edges="51o 1i 2o 52i"/>
    </vehicle>
    <vehicle id="1_87" depart="621.43">
        <route edges="53o 3i 4o 54i"/>
    </vehicle>
    <vehicle id="1_88" depart="628.57">
        <route edges="52o 2i 3o 53i"/>
    </vehicle>
    <vehicle id="1_89" depart="635.71">
        <route edges="53o 3i 4o 54i"/>
    </vehicle>
    <vehicle id="1_90" depart="642.86">
        <route edges="54o 4i 3o 53i"/>
    </vehicle>
    <vehicle id="1_91" depart="650.00">
        <route edges="54o 4i 3o 53i"/>
    </vehicle>
    <vehicle id="1_92" depart="657.14">
        <route edges="51o 1i 4o 54i"/>
    </vehicle>
    <vehicle id="1_93" depart="664.29">
        <route edges="53o 3i 4o 54i"/>
    </vehicle>
    <vehicle id="1_94" depart="671.43">
        <route edges="52o 2i 1o 51i"/>
    </vehicle>
    <vehicle id="1_95" depart="678.57">
        <route edges="54o 4i 2o 52i"/>
    </vehicle>
    <vehicle id="1_96" depart="685.71">
        <route edges="53o 3i 1o 51i"/>
    </vehicle>
    <vehicle id="1_97" depart="692.86">
        <route edges="51o 1i 3o 53i"/>
    </vehicle>
    <vehicle id="1_98" depart="700.00">
        <route edges="54o 4i 3o 53i"/>
    </vehicle>
    <vehicle id="1_99" depart="707.14">
        <route edges="51o 1i 4o 54i"/>
    </vehicle>
    <vehicle id="1_100" depart="714.29">
        <route edges="53o 3i 2o 52i"/>
    </vehicle>
    <vehicle id="1_101" depart="721.43">
        <route edges="53o 3i 4o 54i"/>
    </vehicle>
    <vehicle id="1_102" depart="728.57">
        <route edges="54o 4i 3o 53i"/>
    </vehicle>
    <vehicle id="1_103" depart="735.71">
        <route edges="53o 3i 2o 52i"/>
    </vehicle>
    <vehicle id="1_104" depart="742.86">
        <route edges="54o 4i 2o 52i"/>
    </vehicle>
    <vehicle id="1_105" depart="750.00">
        <route edges="53o 3i 2o 52i"/>
    </vehicle>
    <vehicle id="1_106" depart="757.14">
        <route edges="54o 4i 3o 53i"/>
    </vehicle>
    <vehicle id="1_107" depart="764.29">
        <route edges="53o 3i 2o 52i"/>
    </vehicle>
    <vehicle id="1_108" depart="771.43">
        <route edges="53o 3i 2o 52i"/>
    </vehicle>
    <vehicle id="1_109" depart="778.57">
        <route edges="51o 1i 2o 52i"/>
    </vehicle>
    <vehicle id="1_110" depart="785.71">
        <route edges="51o 1i 4o 54i"/>
    </vehicle>
    <vehicle id="1_111" depart="792.86">
        <route edges="51o 1i 2o 52i"/>
    </vehicle>
    <vehicle id="1_112" depart="800.00">
        <route edges="54o 4i 1o"/>
    </vehicle>
    <vehicle id="1_113" depart="807.14">
        <route edges="51o 1i 2o 52i"/>
    </vehicle>
    <vehicle id="1_114" depart="814.29">
        <route edges="54o 4i 3o 53i"/>
    </vehicle>
    <vehicle id="1_115" depart="821.43">
        <route edges="54o 4i 1o 51i"/>
    </vehicle>
    <vehicle id="1_116" depart="828.57">
        <route edges="51o 1i 2o 52i"/>
    </vehicle>
    <vehicle id="1_117" depart="835.71">
        <route edges="51o 1i 3o 53i"/>
    </vehicle>
    <vehicle id="1_118" depart="842.86">
        <route edges="54o 4i 3o 53i"/>
    </vehicle>
    <vehicle id="1_119" depart="850.00">
        <route edges="54o 4i 1o 51i"/>
    </vehicle>
    <vehicle id="1_120" depart="857.14">
        <route edges="53o 3i 1o 51i"/>
    </vehicle>
    <vehicle id="1_121" depart="864.29">
        <route edges="51o 1i 4o 54i"/>
    </vehicle>
    <vehicle id="1_122" depart="871.43">
        <route edges="52o 2i 1o 51i"/>
    </vehicle>
    <vehicle id="1_123" depart="878.57">
        <route edges="51o 1i 3o 53i"/>
    </vehicle>
    <vehicle id="1_124" depart="885.71">
        <route edges="51o 1i 3o 53i"/>
    </vehicle>
    <vehicle id="1_125" depart="892.86">
        <route edges="54o 4i 1o 51i"/>
    </vehicle>
    <vehicle id="1_126" depart="900.00">
        <route edges="52o 2i 1o 51i"/>
    </vehicle>
    <vehicle id="1_127" depart="907.14">
        <route edges="54o 4i 1o 51i"/>
    </vehicle>
    <vehicle id="1_128" depart="914.29">
        <route edges="53o 3i 4o 54i"/>
    </vehicle>
    <vehicle id="1_129" depart="921.43">
        <route edges="52o 2i 3o 53i"/>
    </vehicle>
    <vehicle id="1_130" depart="928.57">
        <route edges="52o 2i 3o 53i"/>
    </vehicle>
    <vehicle id="1_131" depart="935.71">
        <route edges="51o 1i 2o 52i"/>
    </vehicle>
    <vehicle id="1_132" depart="942.86">
        <route edges="53o 3i 2o 52i"/>
    </vehicle>
    <vehicle id="1_133" depart="950.00">
        <route edges="53o 3i 2o 52i"/>
    </vehicle>
    <vehicle id="1_134" depart="957.14">
        <route edges="54o 4i 2o 52i"/>
    </vehicle>
    <vehicle id="1_135" depart="964.29">
        <route edges="54o 4i 1o 51i"/>
    </vehicle>
    <vehicle id="1_136" depart="971.43">
        <route edges="54o 4i 1o 51i"/>
    </vehicle>
    <vehicle id="1_137" depart="978.57">
        <route edges="54o 4i 1o 51i"/>
    </vehicle>
    <vehicle id="1_138" depart="985.71">
        <route edges="53o 3i 2o 52i"/>
    </vehicle>
    <vehicle id="1_139" depart="992.86">
        <route edges="53o 3i 1o 51i"/>
    </vehicle>
    <vehicle id="1_140" depart="1000.00">
        <route edges="52o 2i 3o 53i"/>
    </vehicle>
    <vehicle id="1_141" depart="1007.14">
        <route edges="52o 2i 3o 53i"/>
    </vehicle>
    <vehicle id="1_142" depart="1014.29">
        <route edges="51o 1i 4o 54i"/>
    </vehicle>
    <vehicle id="1_143" depart="1021.43">
        <route edges="53o 3i 1o 51i"/>
    </vehicle>
    <vehicle id="1_144" depart="1028.57">
        <route edges="54o 4i 1o 51i"/>
    </vehicle>
    <vehicle id="1_145" depart="1035.71">
        <route edges="53o 3i 4o 54i"/>
    </vehicle>
    <vehicle id="1_146" depart="1042.86">
        <route edges="53o 3i 4o 54i"/>
    </vehicle>
    <vehicle id="1_147" depart="1050.00">
        <route edges="54o 4i 3o 53i"/>
    </vehicle>
    <vehicle id="1_148" depart="1057.14">
        <route edges="51o 1i 3o 53i"/>
    </vehicle>
    <vehicle id="1_149" depart="1064.29">
        <route edges="51o 1i 3o 53i"/>
    </vehicle>
    <vehicle id="1_150" depart="1071.43">
        <route edges="53o 3i 4o 54i"/>
    </vehicle>
    <vehicle id="1_151" depart="1078.57">
        <route edges="52o 2i 4o 54i"/>
    </vehicle>
    <vehicle id="1_152" depart="1085.71">
        <route edges="52o 2i 1o 51i"/>
    </vehicle>
    <vehicle id="1_153" depart="1092.86">
        <route edges="51o 1i 4o 54i"/>
    </vehicle>
    <vehicle id="1_154" depart="1100.00">
        <route edges="52o 2i 3o 53i"/>
    </vehicle>
    <vehicle id="1_155" depart="1107.14">
        <route edges="51o 1i 2o 52i"/>
    </vehicle>
    <vehicle id="1_156" depart="1114.29">
        <route edges="54o 4i 1o 51i"/>
    </vehicle>
    <vehicle id="1_157" depart="1121.43">
        <route edges="52o 2i 3o 53i"/>
    </vehicle>
    <vehicle id="1_158" depart="1128.57">
        <route edges="51o 1i 3o 53i"/>
    </vehicle>
    <vehicle id="1_159" depart="1135.71">
        <route edges="54o 4i 3o 53i"/>
    </vehicle>
    <vehicle id="1_160" depart="1142.86">
        <route edges="52o 2i 1o 51i"/>
    </vehicle>
    <vehicle id="1_161" depart="1150.00">
        <route edges="52o 2i 3o 53i"/>
    </vehicle>
    <vehicle id="1_162" depart="1157.14">
        <route edges="54o 4i 1o 51i"/>
    </vehicle>
    <vehicle id="1_163" depart="1164.29">
        <route edges="52o 2i 1o 51i"/>
    </vehicle>
    <vehicle id="1_164" depart="1171.43">
        <route edges="54o 4i 2o 52i"/>
    </vehicle>
    <vehicle id="1_165" depart="1178.57">
        <route edges="51o 1i 2o 52i"/>
    </vehicle>
    <vehicle id="1_166" depart="1185.71">
        <route edges="52o 2i 4o 54i"/>
    </vehicle>
    <vehicle id="1_167" depart="1192.86">
        <route edges="52o 2i 3o 53i"/>
    </vehicle>
    <vehicle id="1_168" depart="1200.00">
        <route edges="51o 1i 2o 52i"/>
    </vehicle>
    <vehicle id="1_169" depart="1207.14">
        <route edges="52o 2i 4o 54i"/>
    </vehicle>
    <vehicle id="1_170" depart="1214.29">
        <route edges="52o 2i 4o 54i"/>
    </vehicle>
    <vehicle id="1_171" depart="1221.43">
        <route edges="52o 2i 1o 51i"/>
    </vehicle>
    <vehicle id="1_172" depart="1228.57">
        <route edges="52o 2i 4o 54i"/>
    </vehicle>
    <vehicle id="1_173" depart="1235.71">
        <route edges="53o 3i 2o 52i"/>
    </vehicle>
    <vehicle id="1_174" depart="1242.86">
        <route edges="53o 3i 2o 52i"/>
    </vehicle>
    <vehicle id="1_175" depart="1250.00">
        <route edges="52o 2i 4o 54i"/>
    </vehicle>
    <vehicle id="1_176" depart="1257.14">
        <route edges="54o 4i 3o 53i"/>
    </vehicle>
    <vehicle id="1_177" depart="1264.29">
        <route edges="54o 4i 1o 51i"/>
    </vehicle>
    <vehicle id="1_178" depart="1271.43">
        <route edges="54o 4i 2o 52i"/>
    </vehicle>
    <vehicle id="1_179" depart="1278.57">
        <route edges="54o 4i 3o 53i"/>
    </vehicle>
    <vehicle id="1_180" depart="1285.71">
        <route edges="53o 3i 4o 54i"/>
    </vehicle>
    <vehicle id="1_181" depart="1292.86">
        <route edges="54o 4i 1o 51i"/>
    </vehicle>
    <vehicle id="1_182" depart="1300.00">
        <route edges="53o 3i 1o 51i"/>
    </vehicle>
    <vehicle id="1_183" depart="1307.14">
        <route edges="51o 1i 2o 52i"/>
    </vehicle>
    <vehicle id="1_184" depart="1314.29">
        <route edges="52o 2i 3o 53i"/>
    </vehicle>
    <vehicle id="1_185" depart="1321.43">
        <route edges="51o 1i 3o 53i"/>
    </vehicle>
    <vehicle id="1_186" depart="1328.57">
        <route edges="53o 3i 1o 51i"/>
    </vehicle>
    <vehicle id="1_187" depart="1335.71">
        <route edges="53o 3i 4o 54i"/>
    </vehicle>
    <vehicle id="1_188" depart="1342.86">
        <route edges="53o 3i 1o 51i"/>
    </vehicle>
    <vehicle id="1_189" depart="1350.00">
        <route edges="52o 2i 3o 53i"/>
    </vehicle>
    <vehicle id="1_190" depart="1357.14">
        <route edges="52o 2i 3o 53i"/>
    </vehicle>
    <vehicle id="1_191" depart="1364.29">
        <route edges="52o 2i 1o 51i"/>
    </vehicle>
    <vehicle id="1_192" depart="1371.43">
        <route edges="52o 2i 4o 54i"/>
    </vehicle>
    <vehicle id="1_193" depart="1378.57">
        <route edges="53o 3i 4o 54i"/>
    </vehicle>
    <vehicle id="1_194" depart="1385.71">
        <route edges="53o 3i 2o 52i"/>
    </vehicle>
    <vehicle id="1_195" depart="1392.86">
        <route edges="54o 4i 2o 52i"/>
    </vehicle>
    <vehicle id="1_196" depart="1400.00">
        <route edges="54o 4i 1o 51i"/>
    </vehicle>
    <vehicle id="1_197" depart="1407.14">
        <route edges="54o 4i 3o 53i"/>
    </vehicle>
    <vehicle id="1_198" depart="1414.29">
        <route edges="53o 3i 1o 51i"/>
    </vehicle>
    <vehicle id="1_199" depart="1421.43">
        <route edges="52o 2i 4o 54i"/>
    </vehicle>
    <vehicle id="1_200" depart="1428.57">
        <route edges="52o 2i 4o 54i"/>
    </vehicle>
    <vehicle id="1_201" depart="1435.71">
        <route edges="51o 1i 2o 52i"/>
    </vehicle>
    <vehicle id="1_202" depart="1442.86">
        <route edges="52o 2i 3o 53i"/>
    </vehicle>
    <vehicle id="1_203" depart="1450.00">
        <route edges="51o 1i 4o 54i"/>
    </vehicle>
    <vehicle id="1_204" depart="1457.14">
        <route edges="53o 3i 2o 52i"/>
    </vehicle>
    <vehicle id="1_205" depart="1464.29">
        <route edges="52o 2i 4o 54i"/>
    </vehicle>
    <vehicle id="1_206" depart="1471.43">
        <route edges="52o 2i 1o 51i"/>
    </vehicle>
    <vehicle id="1_207" depart="1478.57">
        <route edges="51o 1i 2o 52i"/>
    </vehicle>
    <vehicle id="1_208" depart="1485.71">
        <route edges="52o 2i 4o 54i"/>
    </vehicle>
    <vehicle id="1_209" depart="1492.86">
        <route edges="53o 3i 1o 51i"/>
    </vehicle>
    <vehicle id="1_210" depart="1500.00">
        <route edges="2i 1o 51i"/>
    </vehicle>
    <vehicle id="1_211" depart="1507.14">
        <route edges="53o 3i 1o 51i"/>
    </vehicle>
    <vehicle id="1_212" depart="1514.29">
        <route edges="51o 1i 2o 52i"/>
    </vehicle>
    <vehicle id="1_213" depart="1521.43">
        <route edges="54o 4i 1o 51i"/>
    </vehicle>
    <vehicle id="1_214" depart="1528.57">
        <route edges="51o 1i 2o 52i"/>
    </vehicle>
    <vehicle id="1_215" depart="1535.71">
        <route edges="52o 2i 4o 54i"/>
    </vehicle>
    <vehicle id="1_216" depart="1542.86">
        <route edges="53o 3i 1o 51i"/>
    </vehicle>
    <vehicle id="1_217" depart="1550.00">
        <route edges="53o 3i 2o 52i"/>
    </vehicle>
    <vehicle id="1_218" depart="1557.14">
        <route edges="51o 1i 2o 52i"/>
    </vehicle>
    <vehicle id="1_219" depart="1564.29">
        <route edges="52o 2i 1o 51i"/>
    </vehicle>
    <vehicle id="1_220" depart="1571.43">
        <route edges="52o 2i 3o 53i"/>
    </vehicle>
    <vehicle id="1_221" depart="1578.57">
        <route edges="54o 4i 1o 51i"/>
    </vehicle>
    <vehicle id="1_222" depart="1585.71">
        <route edges="52o 2i 4o 54i"/>
    </vehicle>
    <vehicle id="1_223" depart="1592.86">
        <route edges="52o 2i 3o 53i"/>
    </vehicle>
    <vehicle id="1_224" depart="1600.00">
        <route edges="54o 4i 1o 51i"/>
    </vehicle>
    <vehicle id="1_225" depart="1607.14">
        <route edges="53o 3i 4o 54i"/>
    </vehicle>
    <vehicle id="1_226" depart="1614.29">
        <route edges="51o 1i 2o 52i"/>
    </vehicle>
    <vehicle id="1_227" depart="1621.43">
        <route edges="52o 2i 3o 53i"/>
    </vehicle>
    <vehicle id="1_228" depart="1628.57">
        <route edges="52o 2i 1o 51i"/>
    </vehicle>
    <vehicle id="1_229" depart="1635.71">
        <route edges="51o 1i 3o 53i"/>
    </vehicle>
    <vehicle id="1_230" depart="1642.86">
        <route edges="52o 2i 3o 53i"/>
    </vehicle>
    <vehicle id="1_231" depart="1650.00">
        <route edges="53o 3i 1o 51i"/>
    </vehicle>
    <vehicle id="1_232" depart="1657.14">
        <route edges="54o 4i 1o 51i"/>
    </vehicle>
    <vehicle id="1_233" depart="1664.29">
        <route edges="53o 3i 1o 51i"/>
    </vehicle>
    <vehicle id="1_234" depart="1671.43">
        <route edges="51o 1i 2o 52i"/>
    </vehicle>
    <vehicle id="1_235" depart="1678.57">
        <route edges="52o 2i 4o 54i"/>
    </vehicle>
    <vehicle id="1_236" depart="1685.71">
        <route edges="52o 2i 4o 54i"/>
    </vehicle>
    <vehicle id="1_237" depart="1692.86">
        <route edges="52o 2i 3o 53i"/>
    </vehicle>
    <vehicle id="1_238" depart="1700.00">
        <route edges="52o 2i 4o 54i"/>
    </vehicle>
    <vehicle id="1_239" depart="1707.14">
        <route edges="51o 1i 2o 52i"/>
    </vehicle>
    <vehicle id="1_240" depart="1714.29">
        <route edges="53o 3i 4o 54i"/>
    </vehicle>
    <vehicle id="1_241" depart="1721.43">
        <route edges="53o 3i 2o 52i"/>
    </vehicle>
    <vehicle id="1_242" depart="1728.57">
        <route edges="54o 4i 2o 52i"/>
    </vehicle>
    <vehicle id="1_243" depart="1735.71">
        <route edges="51o 1i 3o 53i"/>
    </vehicle>
    <vehicle id="1_244" depart="1742.86">
        <route edges="53o 3i 2o 52i"/>
    </vehicle>
    <vehicle id="1_245" depart="1750.00">
        <route edges="54o 4i 2o 52i"/>
    </vehicle>
    <vehicle id="1_246" depart="1757.14">
        <route edges="53o 3i 2o 52i"/>
    </vehicle>
    <vehicle id="1_247" depart="1764.29">
        <route edges="4i 3o 53i"/>
    </vehicle>
    <vehicle id="1_248" depart="1771.43">
        <route edges="52o 2i 1o 51i"/>
    </vehicle>
    <vehicle id="1_249" depart="1778.57">
        <route edges="54o 4i 1o 51i"/>
    </vehicle>
    <vehicle id="1_250" depart="1785.71">
        <route edges="53o 3i 2o 52i"/>
    </vehicle>
    <vehicle id="1_251" depart="1792.86">
        <route edges="54o 4i 3o 53i"/>
    </vehicle>
    <vehicle id="1_252" depart="1800.00">
        <route edges="52o 2i 1o 51i"/>
    </vehicle>
    <vehicle id="1_253" depart="1807.14">
        <route edges="54o 4i 2o 52i"/>
    </vehicle>
    <vehicle id="1_254" depart="1814.29">
        <route edges="54o 4i 2o 52i"/>
    </vehicle>
    <vehicle id="1_255" depart="1821.43">
        <route edges="54o 4i 2o 52i"/>
    </vehicle>
    <vehicle id="1_256" depart="1828.57">
        <route edges="54o 4i 1o 51i"/>
    </vehicle>
    <vehicle id="1_257" depart="1835.71">
        <route edges="54o 4i 2o 52i"/>
    </vehicle>
    <vehicle id="1_258" depart="1842.86">
        <route edges="54o 4i 1o 51i"/>
    </vehicle>
    <vehicle id="1_259" depart="1850.00">
        <route edges="54o 4i 1o 51i"/>
    </vehicle>
    <vehicle id="1_260" depart="1857.14">
        <route edges="54o 4i 3o 53i"/>
    </vehicle>
    <vehicle id="1_261" depart="1864.29">
        <route edges="52o 2i 3o 53i"/>
    </vehicle>
    <vehicle id="1_262" depart="1871.43">
        <route edges="53o 3i 2o 52i"/>
    </vehicle>
    <vehicle id="1_263" depart="1878.57">
        <route edges="54o 4i 1o 51i"/>
    </vehicle>
    <vehicle id="1_264" depart="1885.71">
        <route edges="53o 3i 2o 52i"/>
    </vehicle>
    <vehicle id="1_265" depart="1892.86">
        <route edges="51o 1i 2o 52i"/>
    </vehicle>
    <vehicle id="1_266" depart="1900.00">
        <route edges="52o 2i 1o 51i"/>
    </vehicle>
    <vehicle id="1_267" depart="1907.14">
        <route edges="51o 1i 4o 54i"/>
    </vehicle>
    <vehicle id="1_268" depart="1914.29">
        <route edges="51o 1i 3o 53i"/>
    </vehicle>
    <vehicle id="1_269" depart="1921.43">
        <route edges="53o 3i 2o 52i"/>
    </vehicle>
    <vehicle id="1_270" depart="1928.57">
        <route edges="54o 4i 3o 53i"/>
    </vehicle>
    <vehicle id="1_271" depart="1935.71">
        <route edges="52o 2i 1o 51i"/>
    </vehicle>
    <vehicle id="1_272" depart="1942.86">
        <route edges="54o 4i 3o 53i"/>
    </vehicle>
    <vehicle id="1_273" depart="1950.00">
        <route edges="52o 2i 1o 51i"/>
    </vehicle>
    <vehicle id="1_274" depart="1957.14">
        <route edges="51o 1i 4o 54i"/>
    </vehicle>
    <vehicle id="1_275" depart="1964.29">
        <route edges="52o 2i 4o 54i"/>
    </vehicle>
    <vehicle id="1_276" depart="1971.43">
        <route edges="53o 3i 1o 51i"/>
    </vehicle>
    <vehicle id="1_277" depart="1978.57">
        <route edges="53o 3i 4o 54i"/>
    </vehicle>
    <vehicle id="1_278" depart="1985.71">
        <route edges="53o 3i 4o 54i"/>
    </vehicle>
    <vehicle id="1_279" depart="1992.86">
        <route edges="51o 1i 3o 53i"/>
    </vehicle>
    <vehicle id="1_280" depart="2000.00">
        <route edges="51o 1i 4o 54i"/>
    </vehicle>
    <vehicle id="1_281" depart="2007.14">
        <route edges="51o 1i 3o 53i"/>
    </vehicle>
    <vehicle id="1_282" depart="2014.29">
        <route edges="52o 2i 4o 54i"/>
    </vehicle>
    <vehicle id="1_283" depart="2021.43">
        <route edges="53o 3i 1o 51i"/>
    </vehicle>
    <vehicle id="1_284" depart="2028.57">
        <route edges="53o 3i 2o 52i"/>
    </vehicle>
    <vehicle id="1_285" depart="2035.71">
        <route edges="53o 3i 4o 54i"/>
    </vehicle>
    <vehicle id="1_286" depart="2042.86">
        <route edges="51o 1i 3o 53i"/>
    </vehicle>
    <vehicle id="1_287" depart="2050.00">
        <route edges="53o 3i 4o 54i"/>
    </vehicle>
    <vehicle id="1_288" depart="2057.14">
        <route edges="52o 2i 4o 54i"/>
    </vehicle>
    <vehicle id="1_289" depart="2064.29">
        <route edges="52o 2i 1o 51i"/>
    </vehicle>
    <vehicle id="1_290" depart="2071.43">
        <route edges="53o 3i 4o"/>
    </vehicle>
    <vehicle id="1_291" depart="2078.57">
        <route edges="52o 2i 1o 51i"/>
    </vehicle>
    <vehicle id="1_292" depart="2085.71">
        <route edges="53o 3i 2o 52i"/>
    </vehicle>
    <vehicle id="1_293" depart="2092.86">
        <route edges="54o 4i 2o 52i"/>
    </vehicle>
    <vehicle id="1_294" depart="2100.00">
        <route edges="52o 2i 1o 51i"/>
    </vehicle>
    <vehicle id="1_295" depart="2107.14">
        <route edges="53o 3i 1o 51i"/>
    </vehicle>
    <vehicle id="1_296" depart="2114.29">
        <route edges="54o 4i 3o 53i"/>
    </vehicle>
    <vehicle id="1_297" depart="2121.43">
        <route edges="51o 1i 2o 52i"/>
    </vehicle>
    <vehicle id="1_298" depart="2128.57">
        <route edges="53o 3i 2o 52i"/>
    </vehicle>
    <vehicle id="1_299" depart="2135.71">
        <route edges="51o 1i 3o 53i"/>
    </vehicle>
    <vehicle id="1_300" depart="2142.86">
        <route edges="52o 2i 4o 54i"/>
    </vehicle>
    <vehicle id="1_301" depart="2150.00">
        <route edges="52o 2i 1o 51i"/>
    </vehicle>
    <vehicle id="1_302" depart="2157.14">
        <route edges="52o 2i 3o 53i"/>
    </vehicle>
    <vehicle id="1_303" depart="2164.29">
        <route edges="52o 2i 1o 51i"/>
    </vehicle>
    <vehicle id="1_304" depart="2171.43">
        <route edges="52o 2i 4o 54i"/>
    </vehicle>
    <vehicle id="1_305" depart="2178.57">
        <route edges="51o 1i 2o 52i"/>
    </vehicle>
    <vehicle id="1_306" depart="2185.71">
        <route edges="51o 1i 2o 52i"/>
    </vehicle>