<?xml version="1.0" encoding="UTF-8"?>

<!-- generated on Fri Nov  8 01:23:59 2019 by Eclipse SUMO duarouter Version 1.2.0
<configuration xmlns:xsi="http://www.w3.org/2001/XMLSchema-instance" xsi:noNamespaceSchemaLocation="http://sumo.dlr.de/xsd/duarouterConfiguration.xsd">

    <input>
        <net-file value="networks/isolated_3_lanes_4_stages.net.xml"/>
        <route-files value="demand/isolated_3_lanes_60p.trip.xml"/>
    </input>

    <output>
        <output-file value="routes/isolated_3_lanes_60p.rou.xml"/>
        <alternatives-output value="routes/isolated_3_lanes_60p.rou.alt.xml"/>
    </output>

    <time>
        <begin value="0.0"/>
        <end value="7200.0"/>
    </time>

    <report>
        <no-warnings value="true"/>
        <ignore-errors value="true"/>
        <no-step-log value="true"/>
    </report>

</configuration>
-->

<routes xmlns:xsi="http://www.w3.org/2001/XMLSchema-instance" xsi:noNamespaceSchemaLocation="http://sumo.dlr.de/xsd/routes_file.xsd">
    <vehicle id="0" depart="0.00">
        <route edges="52o 2i 3o 53i"/>
    </vehicle>
    <vehicle id="1" depart="1.19">
        <route edges="54o 4i 3o 53i"/>
    </vehicle>
    <vehicle id="2" depart="2.38">
        <route edges="51o 1i 2o 52i"/>
    </vehicle>
    <vehicle id="3" depart="3.57">
        <route edges="51o 1i 2o 52i"/>
    </vehicle>
    <vehicle id="4" depart="4.76">
        <route edges="53o 3i 1o 51i"/>
    </vehicle>
    <vehicle id="5" depart="5.95">
        <route edges="52o 2i 1o 51i"/>
    </vehicle>
    <vehicle id="6" depart="7.14">
        <route edges="54o 4i 3o 53i"/>
    </vehicle>
    <vehicle id="7" depart="8.33">
        <route edges="54o 4i 1o 51i"/>
    </vehicle>
    <vehicle id="8" depart="9.52">
        <route edges="51o 1i 4o 54i"/>
    </vehicle>
    <vehicle id="9" depart="10.71">
        <route edges="52o 2i 4o 54i"/>
    </vehicle>
    <vehicle id="10" depart="11.90">
        <route edges="51o 1i 3o 53i"/>
    </vehicle>
    <vehicle id="11" depart="13.09">
        <route edges="4i 2o 52i"/>
    </vehicle>
    <vehicle id="12" depart="14.28">
        <route edges="51o 1i 4o 54i"/>
    </vehicle>
    <vehicle id="13" depart="15.47">
        <route edges="53o 3i 1o 51i"/>
    </vehicle>
    <vehicle id="14" depart="16.66">
        <route edges="51o 1i 2o 52i"/>
    </vehicle>
    <vehicle id="15" depart="17.85">
        <route edges="51o 1i 3o 53i"/>
    </vehicle>
    <vehicle id="16" depart="19.04">
        <route edges="54o 4i 3o 53i"/>
    </vehicle>
    <vehicle id="17" depart="20.23">
        <route edges="52o 2i 3o 53i"/>
    </vehicle>
    <vehicle id="18" depart="21.42">
        <route edges="52o 2i 3o 53i"/>
    </vehicle>
    <vehicle id="19" depart="22.61">
        <route edges="54o 4i 3o 53i"/>
    </vehicle>
    <vehicle id="20" depart="23.80">
        <route edges="53o 3i 1o 51i"/>
    </vehicle>
    <vehicle id="21" depart="24.99">
        <route edges="54o 4i 3o 53i"/>
    </vehicle>
    <vehicle id="22" depart="26.18">
        <route edges="54o 4i 3o 53i"/>
    </vehicle>
    <vehicle id="23" depart="27.37">
        <route edges="53o 3i 4o 54i"/>
    </vehicle>
    <vehicle id="24" depart="28.56">
        <route edges="54o 4i 1o 51i"/>
    </vehicle>
    <vehicle id="25" depart="29.75">
        <route edges="51o 1i 2o 52i"/>
    </vehicle>
    <vehicle id="26" depart="30.94">
        <route edges="53o 3i 2o 52i"/>
    </vehicle>
    <vehicle id="27" depart="32.13">
        <route edges="52o 2i 1o 51i"/>
    </vehicle>
    <vehicle id="28" depart="33.32">
        <route edges="52o 2i 4o 54i"/>
    </vehicle>
    <vehicle id="29" depart="34.51">
        <route edges="51o 1i 4o 54i"/>
    </vehicle>
    <vehicle id="30" depart="35.70">
        <route edges="53o 3i 2o 52i"/>
    </vehicle>
    <vehicle id="31" depart="36.89">
        <route edges="53o 3i 2o 52i"/>
    </vehicle>
    <vehicle id="32" depart="38.08">
        <route edges="53o 3i 4o 54i"/>
    </vehicle>
    <vehicle id="33" depart="39.27">
        <route edges="54o 4i 2o 52i"/>
    </vehicle>
    <vehicle id="34" depart="40.46">
        <route edges="51o 1i 2o 52i"/>
    </vehicle>
    <vehicle id="35" depart="41.65">
        <route edges="54o 4i 3o 53i"/>
    </vehicle>
    <vehicle id="36" depart="42.84">
        <route edges="54o 4i 2o 52i"/>
    </vehicle>
    <vehicle id="37" depart="44.03">
        <route edges="53o 3i 1o 51i"/>
    </vehicle>
    <vehicle id="38" depart="45.22">
        <route edges="54o 4i 2o 52i"/>
    </vehicle>
    <vehicle id="39" depart="46.41">
        <route edges="53o 3i 4o 54i"/>
    </vehicle>
    <vehicle id="40" depart="47.60">
        <route edges="53o 3i 1o 51i"/>
    </vehicle>
    <vehicle id="41" depart="48.79">
        <route edges="51o 1i 2o 52i"/>
    </vehicle>
    <vehicle id="42" depart="49.98">
        <route edges="51o 1i 2o 52i"/>
    </vehicle>
    <vehicle id="43" depart="51.17">
        <route edges="53o 3i 2o 52i"/>
    </vehicle>
    <vehicle id="44" depart="52.36">
        <route edges="53o 3i 2o 52i"/>
    </vehicle>
    <vehicle id="45" depart="53.55">
        <route edges="54o 4i 2o 52i"/>
    </vehicle>
    <vehicle id="46" depart="54.74">
        <route edges="52o 2i 3o 53i"/>
    </vehicle>
    <vehicle id="47" depart="55.93">
        <route edges="52o 2i 1o 51i"/>
    </vehicle>
    <vehicle id="48" depart="57.12">
        <route edges="54o 4i 2o 52i"/>
    </vehicle>
    <vehicle id="49" depart="58.31">
        <route edges="54o 4i 3o 53i"/>
    </vehicle>
    <vehicle id="50" depart="59.50">
        <route edges="51o 1i 4o 54i"/>
    </vehicle>
    <vehicle id="51" depart="60.69">
        <route edges="52o 2i 4o 54i"/>
    </vehicle>
    <vehicle id="52" depart="61.88">
        <route edges="53o 3i 1o 51i"/>
    </vehicle>
    <vehicle id="53" depart="63.07">
        <route edges="53o 3i 4o 54i"/>
    </vehicle>
    <vehicle id="54" depart="64.26">
        <route edges="53o 3i 4o 54i"/>
    </vehicle>
    <vehicle id="55" depart="65.45">
        <route edges="53o 3i 2o 52i"/>
    </vehicle>
    <vehicle id="56" depart="66.64">
        <route edges="54o 4i 1o 51i"/>
    </vehicle>
    <vehicle id="57" depart="67.83">
        <route edges="53o 3i 1o 51i"/>
    </vehicle>
    <vehicle id="58" depart="69.02">
        <route edges="52o 2i 4o 54i"/>
    </vehicle>
    <vehicle id="59" depart="70.21">
        <route edges="51o 1i 2o 52i"/>
    </vehicle>
    <vehicle id="60" depart="71.40">
        <route edges="53o 3i 4o 54i"/>
    </vehicle>
    <vehicle id="61" depart="72.59">
        <route edges="51o 1i 3o 53i"/>
    </vehicle>
    <vehicle id="62" depart="73.78">
        <route edges="53o 3i 4o 54i"/>
    </vehicle>
    <vehicle id="63" depart="74.97">
        <route edges="53o 3i 2o 52i"/>
    </vehicle>
    <vehicle id="64" depart="76.16">
        <route edges="52o 2i 3o 53i"/>
    </vehicle>
    <vehicle id="65" depart="77.35">
        <route edges="52o 2i 4o 54i"/>
    </vehicle>
    <vehicle id="66" depart="78.54">
        <route edges="53o 3i 2o 52i"/>
    </vehicle>
    <vehicle id="67" depart="79.73">
        <route edges="52o 2i 3o 53i"/>
    </vehicle>
    <vehicle id="68" depart="80.92">
        <route edges="53o 3i 4o 54i"/>
    </vehicle>
    <vehicle id="69" depart="82.11">
        <route edges="51o 1i 4o 54i"/>
    </vehicle>
    <vehicle id="70" depart="83.30">
        <route edges="51o 1i 4o 54i"/>
    </vehicle>
    <vehicle id="71" depart="84.49">
        <route edges="52o 2i 3o 53i"/>
    </vehicle>
    <vehicle id="72" depart="85.68">
        <route edges="54o 4i 1o 51i"/>
    </vehicle>
    <vehicle id="73" depart="86.87">
        <route edges="53o 3i 1o 51i"/>
    </vehicle>
    <vehicle id="74" depart="88.06">
        <route edges="51o 1i 4o 54i"/>
    </vehicle>
    <vehicle id="75" depart="89.25">
        <route edges="54o 4i 3o 53i"/>
    </vehicle>
    <vehicle id="76" depart="90.44">
        <route edges="51o 1i 4o 54i"/>
    </vehicle>
    <vehicle id="77" depart="91.63">
        <route edges="53o 3i 1o 51i"/>
    </vehicle>
    <vehicle id="78" depart="92.82">
        <route edges="52o 2i 3o 53i"/>
    </vehicle>
    <vehicle id="79" depart="94.01">
        <route edges="53o 3i 2o 52i"/>
    </vehicle>
    <vehicle id="80" depart="95.20">
        <route edges="53o 3i 4o 54i"/>
    </vehicle>
    <vehicle id="81" depart="96.39">
        <route edges="53o 3i 4o 54i"/>
    </vehicle>
    <vehicle id="82" depart="97.58">
        <route edges="52o 2i 4o 54i"/>
    </vehicle>
    <vehicle id="83" depart="98.77">
        <route edges="54o 4i 1o 51i"/>
    </vehicle>
    <vehicle id="84" depart="99.96">
        <route edges="54o 4i 1o 51i"/>
    </vehicle>
    <vehicle id="85" depart="101.15">
        <route edges="52o 2i 1o 51i"/>
    </vehicle>
    <vehicle id="86" depart="102.34">
        <route edges="54o 4i 1o 51i"/>
    </vehicle>
    <vehicle id="87" depart="103.53">
        <route edges="54o 4i 2o 52i"/>
    </vehicle>
    <vehicle id="88" depart="104.72">
        <route edges="53o 3i 4o 54i"/>
    </vehicle>
    <vehicle id="89" depart="105.91">
        <route edges="54o 4i 2o 52i"/>
    </vehicle>
    <vehicle id="90" depart="107.10">
        <route edges="53o 3i 4o 54i"/>
    </vehicle>
    <vehicle id="91" depart="108.29">
        <route edges="54o 4i 3o 53i"/>
    </vehicle>
    <vehicle id="92" depart="109.48">
        <route edges="52o 2i 4o 54i"/>
    </vehicle>
    <vehicle id="93" depart="110.67">
        <route edges="52o 2i 3o 53i"/>
    </vehicle>
    <vehicle id="94" depart="111.86">
        <route edges="52o 2i 3o 53i"/>
    </vehicle>
    <vehicle id="95" depart="113.05">
        <route edges="51o 1i 3o 53i"/>
    </vehicle>
    <vehicle id="96" depart="114.24">
        <route edges="52o 2i 3o 53i"/>
    </vehicle>
    <vehicle id="97" depart="115.43">
        <route edges="51o 1i 4o 54i"/>
    </vehicle>
    <vehicle id="98" depart="116.62">
        <route edges="53o 3i 1o 51i"/>
    </vehicle>
    <vehicle id="99" depart="117.81">
        <route edges="51o 1i 3o 53i"/>
    </vehicle>
    <vehicle id="100" depart="119.00">
        <route edges="54o 4i 3o 53i"/>
    </vehicle>
    <vehicle id="101" depart="120.19">
        <route edges="54o 4i 3o 53i"/>
    </vehicle>
    <vehicle id="102" depart="121.38">
        <route edges="54o 4i 3o 53i"/>
    </vehicle>
    <vehicle id="103" depart="122.57">
        <route edges="51o 1i 3o 53i"/>
    </vehicle>
    <vehicle id="104" depart="123.76">
        <route edges="52o 2i 1o 51i"/>
    </vehicle>
    <vehicle id="105" depart="124.95">
        <route edges="54o 4i 2o 52i"/>
    </vehicle>
    <vehicle id="106" depart="126.14">
        <route edges="51o 1i 4o 54i"/>
    </vehicle>
    <vehicle id="107" depart="127.33">
        <route edges="51o 1i 4o 54i"/>
    </vehicle>
    <vehicle id="108" depart="128.52">
        <route edges="51o 1i 3o 53i"/>
    </vehicle>
    <vehicle id="109" depart="129.71">
        <route edges="52o 2i 1o 51i"/>
    </vehicle>
    <vehicle id="110" depart="130.90">
        <route edges="54o 4i 2o 52i"/>
    </vehicle>
    <vehicle id="111" depart="132.09">
        <route edges="54o 4i 2o 52i"/>
    </vehicle>
    <vehicle id="112" depart="133.28">
        <route edges="52o 2i 1o 51i"/>
    </vehicle>
    <vehicle id="113" depart="134.47">
        <route edges="53o 3i 1o 51i"/>
    </vehicle>
    <vehicle id="114" depart="135.66">
        <route edges="52o 2i 1o 51i"/>
    </vehicle>
    <vehicle id="115" depart="136.85">
        <route edges="53o 3i 1o 51i"/>
    </vehicle>
    <vehicle id="116" depart="138.04">
        <route edges="51o 1i 2o 52i"/>
    </vehicle>
    <vehicle id="117" depart="139.23">
        <route edges="52o 2i 1o 51i"/>
    </vehicle>
    <vehicle id="118" depart="140.42">
        <route edges="54o 4i 1o 51i"/>
    </vehicle>
    <vehicle id="119" depart="141.61">
        <route edges="54o 4i 3o 53i"/>
    </vehicle>
    <vehicle id="120" depart="142.80">
        <route edges="54o 4i 3o 53i"/>
    </vehicle>
    <vehicle id="121" depart="143.99">
        <route edges="52o 2i 1o 51i"/>
    </vehicle>
    <vehicle id="122" depart="145.18">
        <route edges="51o 1i 3o 53i"/>
    </vehicle>
    <vehicle id="123" depart="146.37">
        <route edges="54o 4i 2o 52i"/>
    </vehicle>
    <vehicle id="124" depart="147.56">
        <route edges="52o 2i 1o"/>
    </vehicle>
    <vehicle id="125" depart="148.75">
        <route edges="51o 1i 3o 53i"/>
    </vehicle>
    <vehicle id="126" depart="149.94">
        <route edges="51o 1i 3o 53i"/>
    </vehicle>
    <vehicle id="127" depart="151.13">
        <route edges="52o 2i 4o 54i"/>
    </vehicle>
    <vehicle id="128" depart="152.32">
        <route edges="54o 4i 1o 51i"/>
    </vehicle>
    <vehicle id="129" depart="153.51">
        <route edges="51o 1i 2o 52i"/>
    </vehicle>
    <vehicle id="130" depart="154.70">
        <route edges="53o 3i 2o 52i"/>
    </vehicle>
    <vehicle id="131" depart="155.89">
        <route edges="54o 4i 2o 52i"/>
    </vehicle>
    <vehicle id="132" depart="157.08">
        <route edges="54o 4i 1o 51i"/>
    </vehicle>
    <vehicle id="133" depart="158.27">
        <route edges="52o 2i 1o 51i"/>
    </vehicle>
    <vehicle id="134" depart="159.46">
        <route edges="54o 4i 1o 51i"/>
    </vehicle>
    <vehicle id="135" depart="160.65">
        <route edges="51o 1i 3o 53i"/>
    </vehicle>
    <vehicle id="136" depart="161.84">
        <route edges="4i 2o 52i"/>
    </vehicle>
    <vehicle id="137" depart="163.03">
        <route edges="53o 3i 2o 52i"/>
    </vehicle>
    <vehicle id="138" depart="164.22">
        <route edges="52o 2i 1o 51i"/>
    </vehicle>
    <vehicle id="139" depart="165.41">
        <route edges="52o 2i 1o 51i"/>
    </vehicle>
    <vehicle id="140" depart="166.60">
        <route edges="53o 3i 4o 54i"/>
    </vehicle>
    <vehicle id="141" depart="167.79">
        <route edges="52o 2i 4o 54i"/>
    </vehicle>
    <vehicle id="142" depart="168.98">
        <route edges="53o 3i 4o"/>
    </vehicle>
    <vehicle id="143" depart="170.17">
        <route edges="52o 2i 3o 53i"/>
    </vehicle>
    <vehicle id="144" depart="171.36">
        <route edges="51o 1i 2o 52i"/>
    </vehicle>
    <vehicle id="145" depart="172.55">
        <route edges="54o 4i 1o 51i"/>
    </vehicle>
    <vehicle id="146" depart="173.74">
        <route edges="52o 2i 3o 53i"/>
    </vehicle>
    <vehicle id="147" depart="174.93">
        <route edges="51o 1i 4o 54i"/>
    </vehicle>
    <vehicle id="148" depart="176.12">
        <route edges="53o 3i 1o 51i"/>
    </vehicle>
    <vehicle id="149" depart="177.31">
        <route edges="52o 2i 1o 51i"/>
    </vehicle>
    <vehicle id="150" depart="178.50">
        <route edges="53o 3i 4o 54i"/>
    </vehicle>
    <vehicle id="151" depart="179.69">
        <route edges="51o 1i 4o 54i"/>
    </vehicle>
    <vehicle id="152" depart="180.88">
        <route edges="54o 4i 3o 53i"/>
    </vehicle>
    <vehicle id="153" depart="182.07">
        <route edges="51o 1i 3o 53i"/>
    </vehicle>
    <vehicle id="154" depart="183.26">
        <route edges="53o 3i 1o 51i"/>
    </vehicle>
    <vehicle id="155" depart="184.45">
        <route edges="51o 1i 3o 53i"/>
    </vehicle>
    <vehicle id="156" depart="185.64">
        <route edges="51o 1i 4o 54i"/>
    </vehicle>
    <vehicle id="157" depart="186.83">
        <route edges="51o 1i 4o 54i"/>
    </vehicle>
    <vehicle id="158" depart="188.02">
        <route edges="52o 2i 1o 51i"/>
    </vehicle>
    <vehicle id="159" depart="189.21">
        <route edges="53o 3i 4o 54i"/>
    </vehicle>
    <vehicle id="160" depart="190.40">
        <route edges="52o 2i 1o 51i"/>
    </vehicle>
    <vehicle id="161" depart="191.59">
        <route edges="51o 1i 3o 53i"/>
    </vehicle>
    <vehicle id="162" depart="192.78">
        <route edges="3i 1o 51i"/>
    </vehicle>
    <vehicle id="163" depart="193.97">
        <route edges="53o 3i 1o 51i"/>
    </vehicle>
    <vehicle id="164" depart="195.16">
        <route edges="53o 3i 2o 52i"/>
    </vehicle>
    <vehicle id="165" depart="196.35">
        <route edges="54o 4i 3o 53i"/>
    </vehicle>
    <vehicle id="166" depart="197.54">
        <route edges="51o 1i 4o 54i"/>
    </vehicle>
    <vehicle id="167" depart="198.73">
        <route edges="52o 2i 3o 53i"/>
    </vehicle>
    <vehicle id="168" depart="199.92">
        <route edges="54o 4i 3o 53i"/>
    </vehicle>
    <vehicle id="169" depart="201.11">
        <route edges="52o 2i 1o 51i"/>
    </vehicle>
    <vehicle id="170" depart="202.30">
        <route edges="53o 3i 2o 52i"/>
    </vehicle>
    <vehicle id="171" depart="203.49">
        <route edges="54o 4i 2o 52i"/>
    </vehicle>
    <vehicle id="172" depart="204.68">
        <route edges="54o 4i 3o 53i"/>
    </vehicle>
    <vehicle id="173" depart="205.87">
        <route edges="54o 4i 1o 51i"/>
    </vehicle>
    <vehicle id="174" depart="207.06">
        <route edges="54o 4i 3o 53i"/>
    </vehicle>
    <vehicle id="175" depart="208.25">
        <route edges="51o 1i 3o 53i"/>
    </vehicle>
    <vehicle id="176" depart="209.44">
        <route edges="52o 2i 3o 53i"/>
    </vehicle>
    <vehicle id="177" depart="210.63">
        <route edges="54o 4i 1o 51i"/>
    </vehicle>
    <vehicle id="178" depart="211.82">
        <route edges="51o 1i 4o 54i"/>
    </vehicle>
    <vehicle id="179" depart="213.01">
        <route edges="54o 4i 1o 51i"/>
    </vehicle>
    <vehicle id="180" depart="214.20">
        <route edges="51o 1i 4o 54i"/>
    </vehicle>
    <vehicle id="181" depart="215.39">
        <route edges="52o 2i 1o 51i"/>
    </vehicle>
    <vehicle id="182" depart="216.58">
        <route edges="54o 4i 1o 51i"/>
    </vehicle>
    <vehicle id="183" depart="217.77">
        <route edges="52o 2i 3o 53i"/>
    </vehicle>
    <vehicle id="184" depart="218.96">
        <route edges="54o 4i 2o"/>
    </vehicle>
    <vehicle id="185" depart="220.15">
        <route edges="54o 4i 3o 53i"/>
    </vehicle>
    <vehicle id="186" depart="221.34">
        <route edges="51o 1i 2o 52i"/>
    </vehicle>
    <vehicle id="187" depart="222.53">
        <route edges="52o 2i 4o 54i"/>
    </vehicle>
    <vehicle id="188" depart="223.72">
        <route edges="53o 3i 1o 51i"/>
    </vehicle>
    <vehicle id="189" depart="224.91">
        <route edges="52o 2i 4o"/>
    </vehicle>
    <vehicle id="190" depart="226.10">
        <route edges="51o 1i 3o 53i"/>
    </vehicle>
    <vehicle id="191" depart="227.29">
        <route edges="52o 2i 1o 51i"/>
    </vehicle>
    <vehicle id="192" depart="228.48">
        <route edges="54o 4i 1o 51i"/>
    </vehicle>
    <vehicle id="193" depart="229.67">
        <route edges="52o 2i 3o 53i"/>
    </vehicle>
    <vehicle id="194" depart="230.86">
        <route edges="54o 4i 3o 53i"/>
    </vehicle>
    <vehicle id="195" depart="232.05">
        <route edges="51o 1i 4o 54i"/>
    </vehicle>
    <vehicle id="196" depart="233.24">
        <route edges="52o 2i 3o 53i"/>
    </vehicle>
    <vehicle id="197" depart="234.43">
        <route edges="51o 1i 2o 52i"/>
    </vehicle>
    <vehicle id="198" depart="235.62">
        <route edges="52o 2i 1o 51i"/>
    </vehicle>
    <vehicle id="199" depart="236.81">
        <route edges="53o 3i 1o 51i"/>
    </vehicle>
    <vehicle id="200" depart="238.00">
        <route edges="54o 4i 2o 52i"/>
    </vehicle>
    <vehicle id="201" depart="239.19">
        <route edges="52o 2i 1o 51i"/>
    </vehicle>
    <vehicle id="202" depart="240.38">
        <route edges="51o 1i 2o 52i"/>
    </vehicle>
    <vehicle id="203" depart="241.57">
        <route edges="54o 4i 2o 52i"/>
    </vehicle>
    <vehicle id="204" depart="242.76">
        <route edges="52o 2i 3o 53i"/>
    </vehicle>
    <vehicle id="205" depart="243.95">
        <route edges="53o 3i 4o 54i"/>
    </vehicle>
    <vehicle id="206" depart="245.14">
        <route edges="51o 1i 3o 53i"/>
    </vehicle>
    <vehicle id="207" depart="246.33">
        <route edges="52o 2i 4o 54i"/>
    </vehicle>
    <vehicle id="208" depart="247.52">
        <route edges="51o 1i 3o 53i"/>
    </vehicle>
    <vehicle id="209" depart="248.71">
        <route edges="51o 1i 3o 53i"/>
    </vehicle>
    <vehicle id="210" depart="249.90">
        <route edges="53o 3i 1o 51i"/>
    </vehicle>
    <vehicle id="211" depart="251.09">
        <route edges="51o 1i 2o 52i"/>
    </vehicle>
    <vehicle id="212" depart="252.28">
        <route edges="3i 4o 54i"/>
    </vehicle>
    <vehicle id="213" depart="253.47">
        <route edges="53o 3i 2o 52i"/>
    </vehicle>
    <vehicle id="214" depart="254.66">
        <route edges="53o 3i 2o 52i"/>
    </vehicle>
    <vehicle id="215" depart="255.85">
        <route edges="52o 2i 1o 51i"/>
    </vehicle>
    <vehicle id="216" depart="257.04">
        <route edges="52o 2i 4o 54i"/>
    </vehicle>
    <vehicle id="217" depart="258.23">
        <route edges="53o 3i 4o 54i"/>
    </vehicle>
    <vehicle id="218" depart="259.42">
        <route edges="51o 1i 3o 53i"/>
    </vehicle>
    <vehicle id="219" depart="260.61">
        <route edges="52o 2i 3o 53i"/>
    </vehicle>
    <vehicle id="220" depart="261.80">
        <route edges="53o 3i 2o 52i"/>
    </vehicle>
    <vehicle id="221" depart="262.99">
        <route edges="52o 2i 4o 54i"/>
    </vehicle>
    <vehicle id="222" depart="264.18">
        <route edges="54o 4i 2o 52i"/>
    </vehicle>
    <vehicle id="223" depart="265.37">
        <route edges="54o 4i 3o 53i"/>
    </vehicle>
    <vehicle id="224" depart="266.56">
        <route edges="54o 4i 2o 52i"/>
    </vehicle>
    <vehicle id="225" depart="267.75">
        <route edges="52o 2i 4o 54i"/>
    </vehicle>
    <vehicle id="226" depart="268.94">
        <route edges="54o 4i 3o 53i"/>
    </vehicle>
    <vehicle id="227" depart="270.13">
        <route edges="52o 2i 3o 53i"/>
    </vehicle>
    <vehicle id="228" depart="271.32">
        <route edges="51o 1i 3o 53i"/>
    </vehicle>
    <vehicle id="229" depart="272.51">
        <route edges="54o 4i 3o 53i"/>
    </vehicle>
    <vehicle id="230" depart="273.70">
        <route edges="54o 4i 1o 51i"/>
    </vehicle>
    <vehicle id="231" depart="274.89">
        <route edges="51o 1i 4o 54i"/>
    </vehicle>
    <vehicle id="232" depart="276.08">
        <route edges="53o 3i 4o 54i"/>
    </vehicle>
    <vehicle id="233" depart="277.27">
        <route edges="51o 1i 3o 53i"/>
    </vehicle>
    <vehicle id="234" depart="278.46">
        <route edges="51o 1i 2o 52i"/>
    </vehicle>
    <vehicle id="235" depart="279.65">
        <route edges="53o 3i 1o 51i"/>
    </vehicle>
    <vehicle id="236" depart="280.84">
        <route edges="52o 2i 1o 51i"/>
    </vehicle>
    <vehicle id="237" depart="282.03">
        <route edges="51o 1i 4o 54i"/>
    </vehicle>
    <vehicle id="238" depart="283.22">
        <route edges="52o 2i 4o 54i"/>
    </vehicle>
    <vehicle id="239" depart="284.41">
        <route edges="52o 2i 3o 53i"/>
    </vehicle>
    <vehicle id="240" depart="285.60">
        <route edges="51o 1i 4o 54i"/>
    </vehicle>
    <vehicle id="241" depart="286.79">
        <route edges="53o 3i 4o 54i"/>
    </vehicle>
    <vehicle id="242" depart="287.98">
        <route edges="51o 1i 3o 53i"/>
    </vehicle>
    <vehicle id="243" depart="289.17">
        <route edges="53o 3i 1o"/>
    </vehicle>
    <vehicle id="244" depart="290.36">
        <route edges="51o 1i 4o 54i"/>
    </vehicle>
    <vehicle id="245" depart="291.55">
        <route edges="52o 2i 4o 54i"/>
    </vehicle>
    <vehicle id="246" depart="292.74">
        <route edges="53o 3i 1o 51i"/>
    </vehicle>
    <vehicle id="247" depart="293.93">
        <route edges="51o 1i 2o 52i"/>
    </vehicle>
    <vehicle id="248" depart="295.12">
        <route edges="53o 3i 2o 52i"/>
    </vehicle>
    <vehicle id="249" depart="296.31">
        <route edges="53o 3i 2o 52i"/>
    </vehicle>
    <vehicle id="250" depart="297.50">
        <route edges="53o 3i 2o 52i"/>
    </vehicle>
    <vehicle id="251" depart="298.69">
        <route edges="52o 2i 1o 51i"/>
    </vehicle>
    <vehicle id="252" depart="299.88">
        <route edges="52o 2i 1o 51i"/>
    </vehicle>
    <vehicle id="253" depart="301.07">
        <route edges="54o 4i 2o 52i"/>
    </vehicle>
    <vehicle id="254" depart="302.26">
        <route edges="51o 1i 3o 53i"/>
    </vehicle>
    <vehicle id="255" depart="303.45">
        <route edges="51o 1i 3o 53i"/>
    </vehicle>
    <vehicle id="256" depart="304.64">
        <route edges="52o 2i 3o 53i"/>
    </vehicle>
    <vehicle id="257" depart="305.83">
        <route edges="53o 3i 1o 51i"/>
    </vehicle>
    <vehicle id="258" depart="307.02">
        <route edges="51o 1i 4o 54i"/>
    </vehicle>
    <vehicle id="259" depart="308.21">
        <route edges="52o 2i 1o 51i"/>
    </vehicle>
    <vehicle id="260" depart="309.40">
        <route edges="51o 1i 2o 52i"/>
    </vehicle>
    <vehicle id="261" depart="310.59">
        <route edges="52o 2i 3o 53i"/>
    </vehicle>
    <vehicle id="262" depart="311.78">
        <route edges="51o 1i 2o 52i"/>
    </vehicle>
    <vehicle id="263" depart="312.97">
        <route edges="1i 3o 53i"/>
    </vehicle>
    <vehicle id="264" depart="314.16">
        <route edges="54o 4i 1o 51i"/>
    </vehicle>
    <vehicle id="265" depart="315.35">
        <route edges="51o 1i 2o 52i"/>
    </vehicle>
    <vehicle id="266" depart="316.54">
        <route edges="51o 1i 2o 52i"/>
    </vehicle>
    <vehicle id="267" depart="317.73">
        <route edges="53o 3i 2o 52i"/>
    </vehicle>
    <vehicle id="268" depart="318.92">
        <route edges="54o 4i 1o 51i"/>
    </vehicle>
    <vehicle id="269" depart="320.11">
        <route edges="54o 4i 1o 51i"/>
    </vehicle>
    <vehicle id="270" depart="321.30">
        <route edges="52o 2i 3o 53i"/>
    </vehicle>
    <vehicle id="271" depart="322.49">
        <route edges="54o 4i 2o 52i"/>
    </vehicle>
    <vehicle id="272" depart="323.68">
        <route edges="51o 1i 3o 53i"/>
    </vehicle>
    <vehicle id="273" depart="324.87">
        <route edges="54o 4i 2o 52i"/>
    </vehicle>
    <vehicle id="274" depart="326.06">
        <route edges="51o 1i 4o 54i"/>
    </vehicle>
    <vehicle id="275" depart="327.25">
        <route edges="52o 2i 1o 51i"/>
    </vehicle>
    <vehicle id="276" depart="328.44">
        <route edges="51o 1i 2o 52i"/>
    </vehicle>
    <vehicle id="277" depart="329.63">
        <route edges="53o 3i 1o 51i"/>
    </vehicle>
    <vehicle id="278" depart="330.82">
        <route edges="53o 3i 2o 52i"/>
    </vehicle>
    <vehicle id="279" depart="332.01">
        <route edges="51o 1i 3o 53i"/>
    </vehicle>
    <vehicle id="280" depart="333.20">
        <route edges="51o 1i 2o 52i"/>
    </vehicle>
    <vehicle id="281" depart="334.39">
        <route edges="53o 3i 2o 52i"/>
    </vehicle>
    <vehicle id="282" depart="335.58">
        <route edges="51o 1i 3o 53i"/>
    </vehicle>
    <vehicle id="283" depart="336.77">
        <route edges="51o 1i 2o 52i"/>
    </vehicle>
    <vehicle id="284" depart="337.96">
        <route edges="53o 3i 4o 54i"/>
    </vehicle>
    <vehicle id="285" depart="339.15">
        <route edges="54o 4i 1o 51i"/>
    </vehicle>
    <vehicle id="286" depart="340.34">
        <route edges="51o 1i 4o 54i"/>
    </vehicle>
    <vehicle id="287" depart="341.53">
        <route edges="51o 1i 3o 53i"/>
    </vehicle>
    <vehicle id="288" depart="342.72">
        <route edges="53o 3i 4o 54i"/>
    </vehicle>
    <vehicle id="289" depart="343.91">
        <route edges="52o 2i 1o 51i"/>
    </vehicle>
    <vehicle id="290" depart="345.10">
        <route edges="52o 2i 1o 51i"/>
    </vehicle>
    <vehicle id="291" depart="346.29">
        <route edges="52o 2i 3o 53i"/>
    </vehicle>
    <vehicle id="292" depart="347.48">
        <route edges="53o 3i 1o 51i"/>
    </vehicle>
    <vehicle id="293" depart="348.67">
        <route edges="53o 3i 2o 52i"/>
    </vehicle>
    <vehicle id="294" depart="349.86">
        <route edges="52o 2i 1o 51i"/>
    </vehicle>
    <vehicle id="295" depart="351.05">
        <route edges="54o 4i 2o 52i"/>
    </vehicle>
    <vehicle id="296" depart="352.24">
        <route edges="52o 2i 1o 51i"/>
    </vehicle>
    <vehicle id="297" depart="353.43">
        <route edges="52o 2i 3o 53i"/>
    </vehicle>
    <vehicle id="298" depart="354.62">
        <route edges="54o 4i 3o 53i"/>
    </vehicle>
    <vehicle id="299" depart="355.81">
        <route edges="52o 2i 1o 51i"/>
    </vehicle>
    <vehicle id="300" depart="357.00">
        <route edges="52o 2i 3o 53i"/>
    </vehicle>
    <vehicle id="301" depart="358.19">
        <route edges="51o 1i 2o 52i"/>
    </vehicle>
    <vehicle id="302" depart="359.38">
        <route edges="54o 4i 1o 51i"/>
    </vehicle>
    <vehicle id="303" depart="360.57">
        <route edges="51o 1i 3o 53i"/>
    </vehicle>
    <vehicle id="304" depart="361.76">
        <route edges="53o 3i 4o 54i"/>
    </vehicle>
    <vehicle id="305" depart="362.95">
        <route edges="53o 3i 1o 51i"/>
    </vehicle>
    <vehicle id="306" depart="364.14">
        <route edges="54o 4i 3o 53i"/>
    </vehicle>
    <vehicle id="307" depart="365.33">
        <route edges="52o 2i 3o 53i"/>
    </vehicle>
    <vehicle id="308" depart="366.52">
        <route edges="54o 4i 3o 53i"/>
    </vehicle>
    <vehicle id="309" depart="367.71">
        <route edges="51o 1i 4o 54i"/>
    </vehicle>
    <vehicle id="310" depart="368.90">
        <route edges="51o 1i 4o 54i"/>
    </vehicle>
    <vehicle id="311" depart="370.09">
        <route edges="53o 3i 1o 51i"/>
    </vehicle>
    <vehicle id="312" depart="371.28">
        <route edges="53o 3i 1o 51i"/>
    </vehicle>
    <vehicle id="313" depart="372.47">
        <route edges="52o 2i 3o"/>
    </vehicle>
    <vehicle id="314" depart="373.66">