<routes>
        <vType id="passenger" accel="0.8" decel="4.5" sigma="0.5" length="5" minGap="2.5" maxSpeed="16.67" guiShape="passenger"/>
        <vType id="typeNS" accel="0.8" decel="4.5" sigma="0.5" length="7" minGap="3" maxSpeed="25" guiShape="bus"/>

        <route id="right" edges="51o 1i 2o 52i" />
        <route id="left" edges="52o 2i 1o 51i" />
        <route id="down" edges="54o 4i 3o 53i" />
        <route id="up" edges="53o 3i 4o 54i" />
        
    <vehicle id="left_0_0" type="passenger" route="left" depart="0" />
    <vehicle id="left_0_1" type="passenger" route="left" depart="2" />
    <vehicle id="right_0_2" type="passenger" route="right" depart="3" />
    <vehicle id="up_0_3" type="passenger" route="up" depart="4" color="1,0,0"/>
    <vehicle id="left_0_4" type="passenger" route="left" depart="10" />
    <vehicle id="up_0_5" type="passenger" route="up" depart="16" color="1,0,0"/>
    <vehicle id="left_0_6" type="passenger" route="left" depart="22" />
    <vehicle id="right_0_7" type="passenger" route="right" depart="25" />
    <vehicle id="right_0_8" type="passenger" route="right" depart="31" />
    <vehicle id="down_0_9" type="passenger" route="down" depart="31" color="1,0,0"/>
    <vehicle id="left_0_10" type="passenger" route="left" depart="49" />
    <vehicle id="left_0_11" type="passenger" route="left" depart="67" />
    <vehicle id="down_0_12" type="passenger" route="down" depart="72" color="1,0,0"/>
    <vehicle id="left_0_13" type="passenger" route="left" depart="74" />
    <vehicle id="right_0_14" type="passenger" route="right" depart="81" />
    <vehicle id="down_0_15" type="passenger" route="down" depart="85" color="1,0,0"/>
    <vehicle id="right_0_16" type="passenger" route="right" depart="92" />
    <vehicle id="down_0_17" type="passenger" route="down" depart="98" color="1,0,0"/>
    <vehicle id="up_0_18" type="passenger" route="up" depart="103" color="1,0,0"/>
    <vehicle id="up_0_19" type="passenger" route="up" depart="106" color="1,0,0"/>
    <vehicle id="left_0_20" type="passenger" route="left" depart="120" />
    <vehicle id="left_0_21" type="passenger" route="left" depart="123" />
    <vehicle id="left_0_22" type="passenger" route="left" depart="125" />
    <vehicle id="right_0_23" type="passenger" route="right" depart="126" />
    <vehicle id="down_0_24" type="passenger" route="down" depart="129" color="1,0,0"/>
    <vehicle id="right_0_25" type="passenger" route="right" depart="132" />
    <vehicle id="up_0_26" type="passenger" route="up" depart="135" color="1,0,0"/>
    <vehicle id="left_0_27" type="passenger" route="left" depart="147" />
    <vehicle id="down_0_28" type="passenger" route="down" depart="149" color="1,0,0"/>
    <vehicle id="left_0_29" type="passenger" route="left" depart="159" />
    <vehicle id="right_0_30" type="passenger" route="right" depart="171" />
    <vehicle id="right_0_31" type="passenger" route="right" depart="179" />
    <vehicle id="right_0_32" type="passenger" route="right" depart="182" />
    <vehicle id="left_0_33" type="passenger" route="left" depart="204" />
    <vehicle id="down_0_34" type="passenger" route="down" depart="206" color="1,0,0"/>
    <vehicle id="up_0_35" type="passenger" route="up" depart="212" color="1,0,0"/>
    <vehicle id="right_0_36" type="passenger" route="right" depart="216" />
    <vehicle id="down_0_37" type="passenger" route="down" depart="220" color="1,0,0"/>
    <vehicle id="right_0_38" type="passenger" route="right" depart="227" />
    <vehicle id="right_0_39" type="passenger" route="right" depart="239" />
    <vehicle id="down_0_40" type="passenger" route="down" depart="241" color="1,0,0"/>
    <vehicle id="up_0_41" type="passenger" route="up" depart="248" color="1,0,0"/>
    <vehicle id="left_0_42" type="passenger" route="left" depart="253" />
    <vehicle id="down_0_43" type="passenger" route="down" depart="256" color="1,0,0"/>
    <vehicle id="left_0_44" type="passenger" route="left" depart="258" />
    <vehicle id="down_0_45" type="passenger" route="down" depart="258" color="1,0,0"/>
    <vehicle id="left_0_46" type="passenger" route="left" depart="262" />
    <vehicle id="left_0_47" type="passenger" route="left" depart="281" />
    <vehicle id="left_0_48" type="passenger" route="left" depart="283" />
    <vehicle id="up_0_49" type="passenger" route="up" depart="284" color="1,0,0"/>
    <vehicle id="left_0_50" type="passenger" route="left" depart="287" />
    <vehicle id="left_0_51" type="passenger" route="left" depart="291" />
    <vehicle id="right_0_52" type="passenger" route="right" depart="292" />
    <vehicle id="down_0_53" type="passenger" route="down" depart="293" color="1,0,0"/>
    <vehicle id="right_0_54" type="passenger" route="right" depart="296" />
    <vehicle id="left_0_55" type="passenger" route="left" depart="296" />
    <vehicle id="left_0_56" type="passenger" route="left" depart="298" />
    <vehicle id="down_0_57" type="passenger" route="down" depart="330" color="1,0,0"/>
    <vehicle id="left_0_58" type="passenger" route="left" depart="343" />
    <vehicle id="up_0_59" type="passenger" route="up" depart="344" color="1,0,0"/>
    <vehicle id="up_0_60" type="passenger" route="up" depart="347" color="1,0,0"/>
    <vehicle id="left_0_61" type="passenger" route="left" depart="350" />
    <vehicle id="right_0_62" type="passenger" route="right" depart="352" />
    <vehicle id="left_0_63" type="passenger" route="left" depart="357" />
    <vehicle id="left_0_64" type="passenger" route="left" depart="359" />
    <vehicle id="right_0_65" type="passenger" route="right" depart="363" />
    <vehicle id="left_0_66" type="passenger" route="left" depart="372" />
    <vehicle id="left_0_67" type="passenger" route="left" depart="376" />
    <vehicle id="right_0_68" type="passenger" route="right" depart="389" />
    <vehicle id="right_0_69" type="passenger" route="right" depart="402" />
    <vehicle id="left_0_70" type="passenger" route="left" depart="402" />
    <vehicle id="left_0_71" type="passenger" route="left" depart="414" />
    <vehicle id="up_0_72" type="passenger" route="up" depart="423" color="1,0,0"/>
    <vehicle id="left_0_73" type="passenger" route="left" depart="430" />
    <vehicle id="up_0_74" type="passenger" route="up" depart="433" color="1,0,0"/>
    <vehicle id="down_0_75" type="passenger" route="down" depart="434" color="1,0,0"/>
    <vehicle id="up_0_76" type="passenger" route="up" depart="451" color="1,0,0"/>
    <vehicle id="right_0_77" type="passenger" route="right" depart="459" />
    <vehicle id="down_0_78" type="passenger" route="down" depart="468" color="1,0,0"/>
    <vehicle id="right_0_79" type="passenger" route="right" depart="483" />
    <vehicle id="up_0_80" type="passenger" route="up" depart="484" color="1,0,0"/>
    <vehicle id="left_0_81" type="passenger" route="left" depart="490" />
    <vehicle id="down_0_82" type="passenger" route="down" depart="490" color="1,0,0"/>
    <vehicle id="down_0_83" type="passenger" route="down" depart="494" color="1,0,0"/>
    <vehicle id="left_0_84" type="passenger" route="left" depart="495" />
    <vehicle id="right_0_85" type="passenger" route="right" depart="496" />
    <vehicle id="down_0_86" type="passenger" route="down" depart="512" color="1,0,0"/>
    <vehicle id="up_0_87" type="passenger" route="up" depart="525" color="1,0,0"/>
    <vehicle id="right_0_88" type="passenger" route="right" depart="528" />
    <vehicle id="right_0_89" type="passenger" route="right" depart="530" />
    <vehicle id="down_0_90" type="passenger" route="down" depart="530" color="1,0,0"/>
    <vehicle id="down_0_91" type="passenger" route="down" depart="531" color="1,0,0"/>
    <vehicle id="left_0_92" type="passenger" route="left" depart="538" />
    <vehicle id="down_0_93" type="passenger" route="down" depart="540" color="1,0,0"/>
    <vehicle id="up_0_94" type="passenger" route="up" depart="541" color="1,0,0"/>
    <vehicle id="right_0_95" type="passenger" route="right" depart="543" />
    <vehicle id="left_0_96" type="passenger" route="left" depart="550" />
    <vehicle id="left_0_97" type="passenger" route="left" depart="555" />
    <vehicle id="down_0_98" type="passenger" route="down" depart="557" color="1,0,0"/>
    <vehicle id="up_0_99" type="passenger" route="up" depart="580" color="1,0,0"/>
    <vehicle id="down_0_100" type="passenger" route="down" depart="582" color="1,0,0"/>
    <vehicle id="down_0_101" type="passenger" route="down" depart="585" color="1,0,0"/>
    <vehicle id="up_0_102" type="passenger" route="up" depart="593" color="1,0,0"/>
    <vehicle id="down_0_103" type="passenger" route="down" depart="606" color="1,0,0"/>
    <vehicle id="left_0_104" type="passenger" route="left" depart="609" />
    <vehicle id="left_0_105" type="passenger" route="left" depart="613" />
    <vehicle id="right_0_106" type="passenger" route="right" depart="629" />
    <vehicle id="right_0_107" type="passenger" route="right" depart="634" />
    <vehicle id="up_0_108" type="passenger" route="up" depart="635" color="1,0,0"/>
    <vehicle id="up_0_109" type="passenger" route="up" depart="640" color="1,0,0"/>
    <vehicle id="right_0_110" type="passenger" route="right" depart="642" />
    <vehicle id="up_0_111" type="passenger" route="up" depart="646" color="1,0,0"/>
    <vehicle id="left_0_112" type="passenger" route="left" depart="659" />
    <vehicle id="right_0_113" type="passenger" route="right" depart="660" />
    <vehicle id="up_0_114" type="passenger" route="up" depart="671" color="1,0,0"/>
    <vehicle id="left_0_115" type="passenger" route="left" depart="676" />
    <vehicle id="up_0_116" type="passenger" route="up" depart="683" color="1,0,0"/>
    <vehicle id="right_0_117" type="passenger" route="right" depart="687" />
    <vehicle id="up_0_118" type="passenger" route="up" depart="688" color="1,0,0"/>
    <vehicle id="up_0_119" type="passenger" route="up" depart="701" color="1,0,0"/>
    <vehicle id="left_0_120" type="passenger" route="left" depart="704" />
    <vehicle id="left_0_121" type="passenger" route="left" depart="706" />
    <vehicle id="right_0_122" type="passenger" route="right" depart="709" />
    <vehicle id="right_0_123" type="passenger" route="right" depart="711" />
    <vehicle id="down_0_124" type="passenger" route="down" depart="712" color="1,0,0"/>
    <vehicle id="left_0_125" type="passenger" route="left" depart="714" />
    <vehicle id="left_0_126" type="passenger" route="left" depart="727" />
    <vehicle id="right_0_127" type="passenger" route="right" depart="731" />
    <vehicle id="right_0_128" type="passenger" route="right" depart="733" />
    <vehicle id="up_0_129" type="passenger" route="up" depart="741" color="1,0,0"/>
    <vehicle id="down_0_130" type="passenger" route="down" depart="747" color="1,0,0"/>
    <vehicle id="up_0_131" type="passenger" route="up" depart="754" color="1,0,0"/>
    <vehicle id="left_0_132" type="passenger" route="left" depart="758" />
    <vehicle id="up_0_133" type="passenger" route="up" depart="760" color="1,0,0"/>
    <vehicle id="left_0_134" type="passenger" route="left" depart="782" />
    <vehicle id="down_0_135" type="passenger" route="down" depart="783" color="1,0,0"/>
    <vehicle id="left_0_136" type="passenger" route="left" depart="785" />
    <vehicle id="down_0_137" type="passenger" route="down" depart="792" color="1,0,0"/>
    <vehicle id="up_0_138" type="passenger" route="up" depart="795" color="1,0,0"/>
    <vehicle id="right_0_139" type="passenger" route="right" depart="801" />
    <vehicle id="up_0_140" type="passenger" route="up" depart="801" color="1,0,0"/>
    <vehicle id="up_0_141" type="passenger" route="up" depart="802" color="1,0,0"/>
    <vehicle id="right_0_142" type="passenger" route="right" depart="814" />
    <vehicle id="left_0_143" type="passenger" route="left" depart="828" />
    <vehicle id="down_0_144" type="passenger" route="down" depart="831" color="1,0,0"/>
    <vehicle id="left_0_145" type="passenger" route="left" depart="832" />
    <vehicle id="left_0_146" type="passenger" route="left" depart="841" />
    <vehicle id="left_0_147" type="passenger" route="left" depart="842" />
    <vehicle id="left_0_148" type="passenger" route="left" depart="843" />
    <vehicle id="left_0_149" type="passenger" route="left" depart="850" />
    <vehicle id="down_0_150" type="passenger" route="down" depart="851" color="1,0,0"/>
    <vehicle id="up_0_151" type="passenger" route="up" depart="855" color="1,0,0"/>
    <vehicle id="left_0_152" type="passenger" route="left" depart="865" />
    <vehicle id="left_0_153" type="passenger" route="left" depart="867" />
    <vehicle id="left_0_154" type="passenger" route="left" depart="875" />
    <vehicle id="left_0_155" type="passenger" route="left" depart="879" />
    <vehicle id="right_0_156" type="passenger" route="right" depart="886" />
    <vehicle id="left_0_157" type="passenger" route="left" depart="892" />
    <vehicle id="right_0_158" type="passenger" route="right" depart="906" />
    <vehicle id="right_0_159" type="passenger" route="right" depart="909" />
    <vehicle id="up_0_160" type="passenger" route="up" depart="913" color="1,0,0"/>
    <vehicle id="down_0_161" type="passenger" route="down" depart="921" color="1,0,0"/>
    <vehicle id="right_0_162" type="passenger" route="right" depart="928" />
    <vehicle id="up_0_163" type="passenger" route="up" depart="932" color="1,0,0"/>
    <vehicle id="up_0_164" type="passenger" route="up" depart="934" color="1,0,0"/>
    <vehicle id="left_0_165" type="passenger" route="left" depart="939" />
    <vehicle id="down_0_166" type="passenger" route="down" depart="941" color="1,0,0"/>
    <vehicle id="left_0_167" type="passenger" route="left" depart="950" />
    <vehicle id="right_0_168" type="passenger" route="right" depart="961" />
    <vehicle id="up_0_169" type="passenger" route="up" depart="966" color="1,0,0"/>
    <vehicle id="left_0_170" type="passenger" route="left" depart="967" />
    <vehicle id="right_0_171" type="passenger" route="right" depart="976" />
    <vehicle id="down_0_172" type="passenger" route="down" depart="976" color="1,0,0"/>
    <vehicle id="right_0_173" type="passenger" route="right" depart="978" />
    <vehicle id="left_0_174" type="passenger" route="left" depart="988" />
    <vehicle id="down_0_175" type="passenger" route="down" depart="988" color="1,0,0"/>
    <vehicle id="down_0_176" type="passenger" route="down" depart="989" color="1,0,0"/>
    <vehicle id="right_0_177" type="passenger" route="right" depart="990" />
    <vehicle id="down_0_178" type="passenger" route="down" depart="991" color="1,0,0"/>
    <vehicle id="left_0_179" type="passenger" route="left" depart="999" />
    <vehicle id="down_1_0" type="passenger" route="down" depart="1002" color="1,0,0"/>
    <vehicle id="left_1_1" type="passenger" route="left" depart="1008" />
    <vehicle id="up_1_2" type="passenger" route="up" depart="1017" color="1,0,0"/>
    <vehicle id="right_1_3" type="passenger" route="right" depart="1019" />
    <vehicle id="down_1_4" type="passenger" route="down" depart="1019" color="1,0,0"/>
    <vehicle id="up_1_5" type="passenger" route="up" depart="1019" color="1,0,0"/>
    <vehicle id="down_1_6" type="passenger" route="down" depart="1023" color="1,0,0"/>
    <vehicle id="up_1_7" type="passenger" route="up" depart="1024" color="1,0,0"/>
    <vehicle id="left_1_8" type="passenger" route="left" depart="1025" />
    <vehicle id="down_1_9" type="passenger" route="down" depart="1027" color="1,0,0"/>
    <vehicle id="down_1_10" type="passenger" route="down" depart="1035" color="1,0,0"/>
    <vehicle id="right_1_11" type="passenger" route="right" depart="1036" />
    <vehicle id="right_1_12" type="passenger" route="right" depart="1038" />
    <vehicle id="down_1_13" type="passenger" route="down" depart="1039" color="1,0,0"/>
    <vehicle id="up_1_14" type="passenger" route="up" depart="1045" color="1,0,0"/>
    <vehicle id="right_1_15" type="passenger" route="right" depart="1049" />
    <vehicle id="right_1_16" type="passenger" route="right" depart="1052" />
    <vehicle id="down_1_17" type="passenger" route="down" depart="1062" color="1,0,0"/>
    <vehicle id="right_1_18" type="passenger" route="right" depart="1065" />
    <vehicle id="right_1_19" type="passenger" route="right" depart="1071" />
    <vehicle id="up_1_20" type="passenger" route="up" depart="1074" color="1,0,0"/>
    <vehicle id="up_1_21" type="passenger" route="up" depart="1076" color="1,0,0"/>
    <vehicle id="down_1_22" type="passenger" route="down" depart="1077" color="1,0,0"/>
    <vehicle id="right_1_23" type="passenger" route="right" depart="1081" />
    <vehicle id="down_1_24" type="passenger" route="down" depart="1087" color="1,0,0"/>
    <vehicle id="up_1_25" type="passenger" route="up" depart="1088" color="1,0,0"/>
    <vehicle id="up_1_26" type="passenger" route="up" depart="1089" color="1,0,0"/>
    <vehicle id="up_1_27" type="passenger" route="up" depart="1090" color="1,0,0"/>
    <vehicle id="up_1_28" type="passenger" route="up" depart="1097" color="1,0,0"/>
    <vehicle id="right_1_29" type="passenger" route="right" depart="1098" />
    <vehicle id="up_1_30" type="passenger" route="up" depart="1102" color="1,0,0"/>
    <vehicle id="left_1_31" type="passenger" route="left" depart="1106" />
    <vehicle id="up_1_32" type="passenger" route="up" depart="1108" color="1,0,0"/>
    <vehicle id="up_1_33" type="passenger" route="up" depart="1112" color="1,0,0"/>
    <vehicle id="right_1_34" type="passenger" route="right" depart="1113" />
    <vehicle id="right_1_35" type="passenger" route="right" depart="1116" />
    <vehicle id="right_1_36" type="passenger" route="right" depart="1123" />
    <vehicle id="left_1_37" type="passenger" route="left" depart="1124" />
    <vehicle id="left_1_38" type="passenger" route="left" depart="1125" />
    <vehicle id="right_1_39" type="passenger" route="right" depart="1133" />
    <vehicle id="up_1_40" type="passenger" route="up" depart="1134" color="1,0,0"/>
    <vehicle id="up_1_41" type="passenger" route="up" depart="1136" color="1,0,0"/>
    <vehicle id="right_1_42" type="passenger" route="right" depart="1137" />
    <vehicle id="left_1_43" type="passenger" route="left" depart="1150" />
    <vehicle id="left_1_44" type="passenger" route="left" depart="1152" />
    <vehicle id="right_1_45" type="passenger" route="right" depart="1158" />
    <vehicle id="down_1_46" type="passenger" route="down" depart="1160" color="1,0,0"/>
    <vehicle id="down_1_47" type="passenger" route="down" depart="1161" color="1,0,0"/>
    <vehicle id="up_1_48" type="passenger" route="up" depart="1162" color="1,0,0"/>
    <vehicle id="up_1_49" type="passenger" route="up" depart="1165" color="1,0,0"/>
    <vehicle id="up_1_50" type="passenger" route="up" depart="1171" color="1,0,0"/>
    <vehicle id="down_1_51" type="passenger" route="down" depart="1173" color="1,0,0"/>
    <vehicle id="left_1_52" type="passenger" route="left" depart="1175" />
    <vehicle id="down_1_53" type="passenger" route="down" depart="1176" color="1,0,0"/>
    <vehicle id="down_1_54" type="passenger" route="down" depart="1177" color="1,0,0"/>
    <vehicle id="right_1_55" type="passenger" route="right" depart="1180" />
    <vehicle id="up_1_56" type="passenger" route="up" depart="1180" color="1,0,0"/>
    <vehicle id="right_1_57" type="passenger" route="right" depart="1182" />
    <vehicle id="down_1_58" type="passenger" route="down" depart="1182" color="1,0,0"/>
    <vehicle id="right_1_59" type="passenger" route="right" depart="1184" />
    <vehicle id="down_1_60" type="passenger" route="down" depart="1187" color="1,0,0"/>
    <vehicle id="up_1_61" type="passenger" route="up" depart="1191" color="1,0,0"/>
    <vehicle id="right_1_62" type="passenger" route="right" depart="1209" />
    <vehicle id="down_1_63" type="passenger" route="down" depart="1209" color="1,0,0"/>
    <vehicle id="right_1_64" type="passenger" route="right" depart="1211" />
    <vehicle id="left_1_65" type="passenger" route="left" depart="1213" />
    <vehicle id="down_1_66" type="passenger" route="down" depart="1216" color="1,0,0"/>
    <vehicle id="down_1_67" type="passenger" route="down" depart="1218" color="1,0,0"/>
    <vehicle id="down_1_68" type="passenger" route="down" depart="1220" color="1,0,0"/>
    <vehicle id="left_1_69" type="passenger" route="left" depart="1234" />
    <vehicle id="down_1_70" type="passenger" route="down" depart="1237" color="1,0,0"/>
    <vehicle id="left_1_71" type="passenger" route="left" depart="1238" />
    <vehicle id="up_1_72" type="passenger" route="up" depart="1239" color="1,0,0"/>
    <vehicle id="up_1_73" type="passenger" route="up" depart="1243" color="1,0,0"/>
    <vehicle id="left_1_74" type="passenger" route="left" depart="1252" />
    <vehicle id="down_1_75" type="passenger" route="down" depart="1252" color="1,0,0"/>
    <vehicle id="right_1_76" type="passenger" route="right" depart="1255" />
    <vehicle id="up_1_77" type="passenger" route="up" depart="1256" color="1,0,0"/>
    <vehicle id="right_1_78" type="passenger" route="right" depart="1258" />
    <vehicle id="right_1_79" type="passenger" route="right" depart="1265" />
    <vehicle id="up_1_80" type="passenger" route="up" depart="1267" color="1,0,0"/>
    <vehicle id="right_1_81" type="passenger" route="right" depart="1271" />
    <vehicle id="down_1_82" type="passenger" route="down" depart="1275" color="1,0,0"/>
    <vehicle id="right_1_83" type="passenger" route="right" depart="1277" />
    <vehicle id="up_1_84" type="passenger" route="up" depart="1280" color="1,0,0"/>
    <vehicle id="left_1_85" type="passenger" route="left" depart="1285" />
    <vehicle id="right_1_86" type="passenger" route="right" depart="1294" />
    <vehicle id="down_1_87" type="passenger" route="down" depart="1301" color="1,0,0"/>
    <vehicle id="right_1_88" type="passenger" route="right" depart="1304" />
    <vehicle id="right_1_89" type="passenger" route="right" depart="1307" />
    <vehicle id="left_1_90" type="passenger" route="left" depart="1311" />
    <vehicle id="right_1_91" type="passenger" route="right" depart="1313" />
    <vehicle id="right_1_92" type="passenger" route="right" depart="1319" />
    <vehicle id="down_1_93" type="passenger" route="down" depart="1328" color="1,0,0"/>
    <vehicle id="right_1_94" type="passenger" route="right" depart="1331" />
    <vehicle id="up_1_95" type="passenger" route="up" depart="1333" color="1,0,0"/>
    <vehicle id="right_1_96" type="passenger" route="right" depart="1335" />
    <vehicle id="up_1_97" type="passenger" route="up" depart="1335" color="1,0,0"/>
    <vehicle id="up_1_98" type="passenger" route="up" depart="1338" color="1,0,0"/>
    <vehicle id="up_1_99" type="passenger" route="up" depart="1348" color="1,0,0"/>
    <vehicle id="left_1_100" type="passenger" route="left" depart="1350" />
    <vehicle id="right_1_101" type="passenger" route="right" depart="1356" />
    <vehicle id="up_1_102" type="passenger" route="up" depart="1357" color="1,0,0"/>
    <vehicle id="up_1_103" type="passenger" route="up" depart="1365" color="1,0,0"/>
    <vehicle id="right_1_104" type="passenger" route="right" depart="1375" />
    <vehicle id="down_1_105" type="passenger" route="down" depart="1378" color="1,0,0"/>
    <vehicle id="up_1_106" type="passenger" route="up" depart="1379" color="1,0,0"/>
    <vehicle id="down_1_107" type="passenger" route="down" depart="1383" color="1,0,0"/>
    <vehicle id="left_1_108" type="passenger" route="left" depart="1385" />
    <vehicle id="down_1_109" type="passenger" route="down" depart="1385" color="1,0,0"/>
    <vehicle id="right_1_110" type="passenger" route="right" depart="1386" />
    <vehicle id="down_1_111" type="passenger" route="down" depart="1388" color="1,0,0"/>
    <vehicle id="up_1_112" type="passenger" route="up" depart="1389" color="1,0,0"/>
    <vehicle id="up_1_113" type="passenger" route="up" depart="1390" color="1,0,0"/>
    <vehicle id="up_1_114" type="passenger" route="up" depart="1398" color="1,0,0"/>
    <vehicle id="right_1_115" type="passenger" route="right" depart="1400" />
    <vehicle id="down_1_116" type="passenger" route="down" depart="1400" color="1,0,0"/>
    <vehicle id="left_1_117" type="passenger" route="left" depart="1404" />
    <vehicle id="right_1_118" type="passenger" route="right" depart="1406" />
    <vehicle id="up_1_119" type="passenger" route="up" depart="1410" color="1,0,0"/>
    <vehicle id="down_1_120" type="passenger" route="down" depart="1412" color="1,0,0"/>
    <vehicle id="left_1_121" type="passenger" route="left" depart="1421" />
    <vehicle id="up_1_122" type="passenger" route="up" depart="1428" color="1,0,0"/>
    <vehicle id="left_1_123" type="passenger" route="left" depart="1429" />
    <vehicle id="right_1_124" type="passenger" route="right" depart="1430" />
    <vehicle id="right_1_125" type="passenger" route="right" depart="1432" />
    <vehicle id="right_1_126" type="passenger" route="right" depart="1435" />
    <vehicle id="down_1_127" type="passenger" route="down" depart="1437" color="1,0,0"/>
    <vehicle id="left_1_128" type="passenger" route="left" depart="1438" />
    <vehicle id="up_1_129" type="passenger" route="up" depart="1440" color="1,0,0"/>
    <vehicle id="down_1_130" type="passenger" route="down" depart="1447" color="1,0,0"/>
    <vehicle id="right_1_131" type="passenger" route="right" depart="1451" />
    <vehicle id="down_1_132" type="passenger" route="down" depart="1456" color="1,0,0"/>
    <vehicle id="up_1_133" type="passenger" route="up" depart="1461" color="1,0,0"/>
    <vehicle id="right_1_134" type="passenger" route="right" depart="1465" />
    <vehicle id="down_1_135" type="passenger" route="down" depart="1466" color="1,0,0"/>
    <vehicle id="up_1_136" type="passenger" route="up" depart="1469" color="1,0,0"/>
    <vehicle id="up_1_137" type="passenger" route="up" depart="1475" color="1,0,0"/>
    <vehicle id="left_1_138" type="passenger" route="left" depart="1477" />
    <vehicle id="down_1_139" type="passenger" route="down" depart="1486" color="1,0,0"/>
    <vehicle id="right_1_140" type="passenger" route="right" depart="1490" />
    <vehicle id="down_1_141" type="passenger" route="down" depart="1491" color="1,0,0"/>
    <vehicle id="up_1_142" type="passenger" route="up" depart="1491" color="1,0,0"/>
    <vehicle id="down_1_143" type="passenger" route="down" depart="1498" color="1,0,0"/>
    <vehicle id="left_1_144" type="passenger" route="left" depart="1505" />
    <vehicle id="right_1_145" type="passenger" route="right" depart="1510" />
    <vehicle id="right_1_146" type="passenger" route="right" depart="1513" />
    <vehicle id="down_1_147" type="passenger" route="down" depart="1516" color="1,0,0"/>
    <vehicle id="down_1_148" type="passenger" route="down" depart="1517" color="1,0,0"/>
    <vehicle id="left_1_149" type="passenger" route="left" depart="1518" />
    <vehicle id="down_1_150" type="passenger" route="down" depart="1523" color="1,0,0"/>
    <vehicle id="down_1_151" type="passenger" route="down" depart="1530" color="1,0,0"/>
    <vehicle id="down_1_152" type="passenger" route="down" depart="1533" color="1,0,0"/>
    <vehicle id="up_1_153" type="passenger" route="up" depart="1537" color="1,0,0"/>
    <vehicle id="down_1_154" type="passenger" route="down" depart="1544" color="1,0,0"/>
    <vehicle id="up_1_155" type="passenger" route="up" depart="1544" color="1,0,0"/>
    <vehicle id="up_1_156" type="passenger" route="up" depart="1549" color="1,0,0"/>
    <vehicle id="down_1_157" type="passenger" route="down" depart="1551" color="1,0,0"/>
    <vehicle id="down_1_158" type="passenger" route="down" depart="1557" color="1,0,0"/>
    <vehicle id="up_1_159" type="passenger" route="up" depart="1557" color="1,0,0"/>
    <vehicle id="up_1_160" type="passenger" route="up" depart="1558" color="1,0,0"/>
    <vehicle id="up_1_161" type="passenger" route="up" depart="1561" color="1,0,0"/>
    <vehicle id="down_1_162" type="passenger" route="down" depart="1562" color="1,0,0"/>
    <vehicle id="up_1_163" type="passenger" route="up" depart="1569" color="1,0,0"/>
    <vehicle id="right_1_164" type="passenger" route="right" depart="1572" />
    <vehicle id="right_1_165" type="passenger" route="right" depart="1576" />
    <vehicle id="right_1_166" type="passenger" route="right" depart="1582" />
    <vehicle id="right_1_167" type="passenger" route="right" depart="1586" />
    <vehicle id="down_1_168" type="passenger" route="down" depart="1588" color="1,0,0"/>
    <vehicle id="up_1_169" type="passenger" route="up" depart="1600" color="1,0,0"/>
    <vehicle id="up_1_170" type="passenger" route="up" depart="1608" color="1,0,0"/>
    <vehicle id="left_1_171" type="passenger" route="left" depart="1613" />
    <vehicle id="down_1_172" type="passenger" route="down" depart="1613" color="1,0,0"/>
    <vehicle id="down_1_173" type="passenger" route="down" depart="1615" color="1,0,0"/>
    <vehicle id="left_1_174" type="passenger" route="left" depart="1632" />
    <vehicle id="up_1_175" type="passenger" route="up" depart="1634" color="1,0,0"/>
    <vehicle id="right_1_176" type="passenger" route="right" depart="1637" />
    <vehicle id="down_1_177" type="passenger" route="down" depart="1641" color="1,0,0"/>
    <vehicle id="down_1_178" type="passenger" route="down" depart="1646" color="1,0,0"/>
    <vehicle id="left_1_179" type="passenger" route="left" depart="1647" />
    <vehicle id="up_1_180" type="passenger" route="up" depart="1648" color="1,0,0"/>
    <vehicle id="right_1_181" type="passenger" route="right" depart="1654" />
    <vehicle id="right_1_182" type="passenger" route="right" depart="1655" />
    <vehicle id="down_1_183" type="passenger" route="down" depart="1658" color="1,0,0"/>
    <vehicle id="right_1_184" type="passenger" route="right" depart="1661" />