<routes>
            <vType id="passenger" accel="0.8" decel="4.5" sigma="0.5" length="5" minGap="2.5" maxSpeed="16.67"     guiShape="passenger"/>
            <vType id="typeNS" accel="0.8" decel="4.5" sigma="0.5" length="7" minGap="3" maxSpeed="25" guiShape="bus"/>

            <route id="right" edges="51o 1i 2o 52i" />
            <route id="left" edges="52o 2i 1o 51i" />
            <route id="down" edges="54o 4i 3o 53i" />
            <route id="up" edges="53o 3i 4o 54i" />
            
    <vehicle id="left_0" type="passenger" route="left" depart="0" />
    <vehicle id="left_1" type="passenger" route="left" depart="2" />
    <vehicle id="right_2" type="passenger" route="right" depart="3" />
    <vehicle id="up_3" type="passenger" route="up" depart="4" color="1,0,0"/>
    <vehicle id="left_4" type="passenger" route="left" depart="10" />
    <vehicle id="right_5" type="passenger" route="right" depart="11" />
    <vehicle id="up_6" type="passenger" route="up" depart="16" color="1,0,0"/>
    <vehicle id="right_7" type="passenger" route="right" depart="22" />
    <vehicle id="left_8" type="passenger" route="left" depart="22" />
    <vehicle id="down_9" type="passenger" route="down" depart="23" color="1,0,0"/>
    <vehicle id="right_10" type="passenger" route="right" depart="25" />
    <vehicle id="right_11" type="passenger" route="right" depart="31" />
    <vehicle id="down_12" type="passenger" route="down" depart="31" color="1,0,0"/>
    <vehicle id="up_13" type="passenger" route="up" depart="32" color="1,0,0"/>
    <vehicle id="right_14" type="passenger" route="right" depart="34" />
    <vehicle id="right_15" type="passenger" route="right" depart="40" />
    <vehicle id="left_16" type="passenger" route="left" depart="41" />
    <vehicle id="right_17" type="passenger" route="right" depart="44" />
    <vehicle id="left_18" type="passenger" route="left" depart="49" />
    <vehicle id="up_19" type="passenger" route="up" depart="51" color="1,0,0"/>
    <vehicle id="right_20" type="passenger" route="right" depart="56" />
    <vehicle id="right_21" type="passenger" route="right" depart="63" />
    <vehicle id="right_22" type="passenger" route="right" depart="64" />
    <vehicle id="left_23" type="passenger" route="left" depart="67" />
    <vehicle id="right_24" type="passenger" route="right" depart="69" />
    <vehicle id="down_25" type="passenger" route="down" depart="72" color="1,0,0"/>
    <vehicle id="left_26" type="passenger" route="left" depart="74" />
    <vehicle id="right_27" type="passenger" route="right" depart="81" />
    <vehicle id="down_28" type="passenger" route="down" depart="85" color="1,0,0"/>
    <vehicle id="right_29" type="passenger" route="right" depart="92" />
    <vehicle id="down_30" type="passenger" route="down" depart="98" color="1,0,0"/>
    <vehicle id="up_31" type="passenger" route="up" depart="103" color="1,0,0"/>
    <vehicle id="up_32" type="passenger" route="up" depart="106" color="1,0,0"/>
    <vehicle id="up_33" type="passenger" route="up" depart="108" color="1,0,0"/>
    <vehicle id="right_34" type="passenger" route="right" depart="115" />
    <vehicle id="left_35" type="passenger" route="left" depart="117" />
    <vehicle id="left_36" type="passenger" route="left" depart="120" />
    <vehicle id="left_37" type="passenger" route="left" depart="123" />
    <vehicle id="left_38" type="passenger" route="left" depart="125" />
    <vehicle id="right_39" type="passenger" route="right" depart="126" />
    <vehicle id="right_40" type="passenger" route="right" depart="127" />
    <vehicle id="left_41" type="passenger" route="left" depart="129" />
    <vehicle id="down_42" type="passenger" route="down" depart="129" color="1,0,0"/>
    <vehicle id="right_43" type="passenger" route="right" depart="132" />
    <vehicle id="up_44" type="passenger" route="up" depart="135" color="1,0,0"/>
    <vehicle id="left_45" type="passenger" route="left" depart="137" />
    <vehicle id="right_46" type="passenger" route="right" depart="138" />
    <vehicle id="right_47" type="passenger" route="right" depart="139" />
    <vehicle id="left_48" type="passenger" route="left" depart="147" />
    <vehicle id="down_49" type="passenger" route="down" depart="149" color="1,0,0"/>
    <vehicle id="right_50" type="passenger" route="right" depart="150" />
    <vehicle id="right_51" type="passenger" route="right" depart="152" />
    <vehicle id="left_52" type="passenger" route="left" depart="159" />
    <vehicle id="up_53" type="passenger" route="up" depart="162" color="1,0,0"/>
    <vehicle id="right_54" type="passenger" route="right" depart="164" />
    <vehicle id="down_55" type="passenger" route="down" depart="164" color="1,0,0"/>
    <vehicle id="right_56" type="passenger" route="right" depart="171" />
    <vehicle id="right_57" type="passenger" route="right" depart="179" />
    <vehicle id="right_58" type="passenger" route="right" depart="180" />
    <vehicle id="right_59" type="passenger" route="right" depart="182" />
    <vehicle id="right_60" type="passenger" route="right" depart="192" />
    <vehicle id="left_61" type="passenger" route="left" depart="204" />
    <vehicle id="down_62" type="passenger" route="down" depart="206" color="1,0,0"/>
    <vehicle id="up_63" type="passenger" route="up" depart="212" color="1,0,0"/>
    <vehicle id="right_64" type="passenger" route="right" depart="213" />
    <vehicle id="right_65" type="passenger" route="right" depart="216" />
    <vehicle id="left_66" type="passenger" route="left" depart="218" />
    <vehicle id="down_67" type="passenger" route="down" depart="220" color="1,0,0"/>
    <vehicle id="right_68" type="passenger" route="right" depart="227" />
    <vehicle id="right_69" type="passenger" route="right" depart="239" />
    <vehicle id="right_70" type="passenger" route="right" depart="241" />
    <vehicle id="down_71" type="passenger" route="down" depart="241" color="1,0,0"/>
    <vehicle id="right_72" type="passenger" route="right" depart="245" />
    <vehicle id="up_73" type="passenger" route="up" depart="248" color="1,0,0"/>
    <vehicle id="right_74" type="passenger" route="right" depart="250" />
    <vehicle id="left_75" type="passenger" route="left" depart="253" />
    <vehicle id="down_76" type="passenger" route="down" depart="254" color="1,0,0"/>
    <vehicle id="down_77" type="passenger" route="down" depart="256" color="1,0,0"/>
    <vehicle id="left_78" type="passenger" route="left" depart="258" />
    <vehicle id="down_79" type="passenger" route="down" depart="258" color="1,0,0"/>
    <vehicle id="up_80" type="passenger" route="up" depart="259" color="1,0,0"/>
    <vehicle id="left_81" type="passenger" route="left" depart="262" />
    <vehicle id="up_82" type="passenger" route="up" depart="263" color="1,0,0"/>
    <vehicle id="left_83" type="passenger" route="left" depart="265" />
    <vehicle id="right_84" type="passenger" route="right" depart="266" />
    <vehicle id="left_85" type="passenger" route="left" depart="281" />
    <vehicle id="left_86" type="passenger" route="left" depart="283" />
    <vehicle id="up_87" type="passenger" route="up" depart="284" color="1,0,0"/>
    <vehicle id="right_88" type="passenger" route="right" depart="287" />
    <vehicle id="left_89" type="passenger" route="left" depart="287" />
    <vehicle id="left_90" type="passenger" route="left" depart="291" />
    <vehicle id="right_91" type="passenger" route="right" depart="292" />
    <vehicle id="down_92" type="passenger" route="down" depart="293" color="1,0,0"/>
    <vehicle id="right_93" type="passenger" route="right" depart="296" />
    <vehicle id="left_94" type="passenger" route="left" depart="296" />
    <vehicle id="right_95" type="passenger" route="right" depart="298" />
    <vehicle id="left_96" type="passenger" route="left" depart="298" />
    <vehicle id="right_97" type="passenger" route="right" depart="309" />
    <vehicle id="right_98" type="passenger" route="right" depart="310" />
    <vehicle id="right_99" type="passenger" route="right" depart="311" />
    <vehicle id="left_100" type="passenger" route="left" depart="315" />
    <vehicle id="right_101" type="passenger" route="right" depart="320" />
    <vehicle id="right_102" type="passenger" route="right" depart="329" />
    <vehicle id="down_103" type="passenger" route="down" depart="330" color="1,0,0"/>
    <vehicle id="right_104" type="passenger" route="right" depart="340" />
    <vehicle id="left_105" type="passenger" route="left" depart="343" />
    <vehicle id="down_106" type="passenger" route="down" depart="343" color="1,0,0"/>
    <vehicle id="up_107" type="passenger" route="up" depart="344" color="1,0,0"/>
    <vehicle id="up_108" type="passenger" route="up" depart="347" color="1,0,0"/>
    <vehicle id="right_109" type="passenger" route="right" depart="348" />
    <vehicle id="left_110" type="passenger" route="left" depart="350" />
    <vehicle id="right_111" type="passenger" route="right" depart="352" />
    <vehicle id="left_112" type="passenger" route="left" depart="357" />
    <vehicle id="left_113" type="passenger" route="left" depart="359" />
    <vehicle id="down_114" type="passenger" route="down" depart="361" color="1,0,0"/>
    <vehicle id="down_115" type="passenger" route="down" depart="362" color="1,0,0"/>
    <vehicle id="right_116" type="passenger" route="right" depart="363" />
    <vehicle id="right_117" type="passenger" route="right" depart="366" />
    <vehicle id="left_118" type="passenger" route="left" depart="369" />
    <vehicle id="left_119" type="passenger" route="left" depart="372" />
    <vehicle id="right_120" type="passenger" route="right" depart="374" />
    <vehicle id="left_121" type="passenger" route="left" depart="376" />
    <vehicle id="down_122" type="passenger" route="down" depart="376" color="1,0,0"/>
    <vehicle id="right_123" type="passenger" route="right" depart="388" />
    <vehicle id="right_124" type="passenger" route="right" depart="389" />
    <vehicle id="left_125" type="passenger" route="left" depart="392" />
    <vehicle id="down_126" type="passenger" route="down" depart="395" color="1,0,0"/>
    <vehicle id="right_127" type="passenger" route="right" depart="402" />
    <vehicle id="left_128" type="passenger" route="left" depart="402" />
    <vehicle id="right_129" type="passenger" route="right" depart="406" />
    <vehicle id="left_130" type="passenger" route="left" depart="406" />
    <vehicle id="left_131" type="passenger" route="left" depart="414" />
    <vehicle id="up_132" type="passenger" route="up" depart="415" color="1,0,0"/>
    <vehicle id="up_133" type="passenger" route="up" depart="423" color="1,0,0"/>
    <vehicle id="left_134" type="passenger" route="left" depart="430" />
    <vehicle id="up_135" type="passenger" route="up" depart="433" color="1,0,0"/>
    <vehicle id="down_136" type="passenger" route="down" depart="434" color="1,0,0"/>
    <vehicle id="up_137" type="passenger" route="up" depart="436" color="1,0,0"/>
    <vehicle id="down_138" type="passenger" route="down" depart="450" color="1,0,0"/>
    <vehicle id="up_139" type="passenger" route="up" depart="451" color="1,0,0"/>
    <vehicle id="right_140" type="passenger" route="right" depart="459" />
    <vehicle id="right_141" type="passenger" route="right" depart="462" />
    <vehicle id="down_142" type="passenger" route="down" depart="468" color="1,0,0"/>
    <vehicle id="left_143" type="passenger" route="left" depart="469" />
    <vehicle id="right_144" type="passenger" route="right" depart="477" />
    <vehicle id="right_145" type="passenger" route="right" depart="481" />
    <vehicle id="right_146" type="passenger" route="right" depart="483" />
    <vehicle id="down_147" type="passenger" route="down" depart="483" color="1,0,0"/>
    <vehicle id="left_148" type="passenger" route="left" depart="484" />
    <vehicle id="up_149" type="passenger" route="up" depart="484" color="1,0,0"/>
    <vehicle id="left_150" type="passenger" route="left" depart="490" />
    <vehicle id="down_151" type="passenger" route="down" depart="490" color="1,0,0"/>
    <vehicle id="down_152" type="passenger" route="down" depart="494" color="1,0,0"/>
    <vehicle id="right_153" type="passenger" route="right" depart="495" />
    <vehicle id="left_154" type="passenger" route="left" depart="495" />
    <vehicle id="right_155" type="passenger" route="right" depart="496" />
    <vehicle id="down_156" type="passenger" route="down" depart="497" color="1,0,0"/>
    <vehicle id="right_157" type="passenger" route="right" depart="501" />
    <vehicle id="down_158" type="passenger" route="down" depart="512" color="1,0,0"/>
    <vehicle id="right_159" type="passenger" route="right" depart="517" />
    <vehicle id="down_160" type="passenger" route="down" depart="525" color="1,0,0"/>
    <vehicle id="up_161" type="passenger" route="up" depart="525" color="1,0,0"/>
    <vehicle id="right_162" type="passenger" route="right" depart="528" />
    <vehicle id="right_163" type="passenger" route="right" depart="530" />
    <vehicle id="down_164" type="passenger" route="down" depart="530" color="1,0,0"/>
    <vehicle id="down_165" type="passenger" route="down" depart="531" color="1,0,0"/>
    <vehicle id="right_166" type="passenger" route="right" depart="533" />
    <vehicle id="right_167" type="passenger" route="right" depart="538" />
    <vehicle id="left_168" type="passenger" route="left" depart="538" />
    <vehicle id="right_169" type="passenger" route="right" depart="540" />
    <vehicle id="down_170" type="passenger" route="down" depart="540" color="1,0,0"/>
    <vehicle id="up_171" type="passenger" route="up" depart="541" color="1,0,0"/>
    <vehicle id="right_172" type="passenger" route="right" depart="542" />
    <vehicle id="right_173" type="passenger" route="right" depart="543" />
    <vehicle id="right_174" type="passenger" route="right" depart="545" />
    <vehicle id="left_175" type="passenger" route="left" depart="548" />
    <vehicle id="left_176" type="passenger" route="left" depart="550" />
    <vehicle id="right_177" type="passenger" route="right" depart="555" />
    <vehicle id="left_178" type="passenger" route="left" depart="555" />
    <vehicle id="down_179" type="passenger" route="down" depart="557" color="1,0,0"/>
    <vehicle id="right_180" type="passenger" route="right" depart="558" />
    <vehicle id="right_181" type="passenger" route="right" depart="562" />
    <vehicle id="right_182" type="passenger" route="right" depart="563" />
    <vehicle id="right_183" type="passenger" route="right" depart="571" />
    <vehicle id="left_184" type="passenger" route="left" depart="576" />
    <vehicle id="up_185" type="passenger" route="up" depart="580" color="1,0,0"/>
    <vehicle id="down_186" type="passenger" route="down" depart="582" color="1,0,0"/>
    <vehicle id="down_187" type="passenger" route="down" depart="585" color="1,0,0"/>
    <vehicle id="up_188" type="passenger" route="up" depart="593" color="1,0,0"/>
    <vehicle id="right_189" type="passenger" route="right" depart="596" />
    <vehicle id="right_190" type="passenger" route="right" depart="601" />
    <vehicle id="right_191" type="passenger" route="right" depart="606" />
    <vehicle id="down_192" type="passenger" route="down" depart="606" color="1,0,0"/>
    <vehicle id="right_193" type="passenger" route="right" depart="609" />
    <vehicle id="left_194" type="passenger" route="left" depart="609" />
    <vehicle id="right_195" type="passenger" route="right" depart="612" />
    <vehicle id="left_196" type="passenger" route="left" depart="613" />
    <vehicle id="down_197" type="passenger" route="down" depart="619" color="1,0,0"/>
    <vehicle id="right_198" type="passenger" route="right" depart="629" />
    <vehicle id="right_199" type="passenger" route="right" depart="634" />
    <vehicle id="right_200" type="passenger" route="right" depart="635" />
    <vehicle id="up_201" type="passenger" route="up" depart="635" color="1,0,0"/>
    <vehicle id="up_202" type="passenger" route="up" depart="640" color="1,0,0"/>
    <vehicle id="right_203" type="passenger" route="right" depart="642" />
    <vehicle id="down_204" type="passenger" route="down" depart="643" color="1,0,0"/>
    <vehicle id="up_205" type="passenger" route="up" depart="646" color="1,0,0"/>
    <vehicle id="right_206" type="passenger" route="right" depart="649" />
    <vehicle id="down_207" type="passenger" route="down" depart="654" color="1,0,0"/>
    <vehicle id="left_208" type="passenger" route="left" depart="659" />
    <vehicle id="down_209" type="passenger" route="down" depart="659" color="1,0,0"/>
    <vehicle id="right_210" type="passenger" route="right" depart="660" />
    <vehicle id="left_211" type="passenger" route="left" depart="660" />
    <vehicle id="right_212" type="passenger" route="right" depart="662" />
    <vehicle id="left_213" type="passenger" route="left" depart="665" />
    <vehicle id="left_214" type="passenger" route="left" depart="666" />
    <vehicle id="up_215" type="passenger" route="up" depart="671" color="1,0,0"/>
    <vehicle id="down_216" type="passenger" route="down" depart="672" color="1,0,0"/>
    <vehicle id="left_217" type="passenger" route="left" depart="673" />
    <vehicle id="right_218" type="passenger" route="right" depart="675" />
    <vehicle id="left_219" type="passenger" route="left" depart="676" />
    <vehicle id="left_220" type="passenger" route="left" depart="680" />
    <vehicle id="left_221" type="passenger" route="left" depart="682" />
    <vehicle id="up_222" type="passenger" route="up" depart="683" color="1,0,0"/>
    <vehicle id="right_223" type="passenger" route="right" depart="687" />
    <vehicle id="up_224" type="passenger" route="up" depart="688" color="1,0,0"/>
    <vehicle id="up_225" type="passenger" route="up" depart="690" color="1,0,0"/>
    <vehicle id="left_226" type="passenger" route="left" depart="694" />
    <vehicle id="left_227" type="passenger" route="left" depart="697" />
    <vehicle id="up_228" type="passenger" route="up" depart="701" color="1,0,0"/>
    <vehicle id="left_229" type="passenger" route="left" depart="704" />
    <vehicle id="left_230" type="passenger" route="left" depart="706" />
    <vehicle id="right_231" type="passenger" route="right" depart="709" />
    <vehicle id="left_232" type="passenger" route="left" depart="709" />
    <vehicle id="right_233" type="passenger" route="right" depart="711" />
    <vehicle id="down_234" type="passenger" route="down" depart="712" color="1,0,0"/>
    <vehicle id="left_235" type="passenger" route="left" depart="714" />
    <vehicle id="up_236" type="passenger" route="up" depart="715" color="1,0,0"/>
    <vehicle id="left_237" type="passenger" route="left" depart="721" />
    <vehicle id="right_238" type="passenger" route="right" depart="724" />
    <vehicle id="left_239" type="passenger" route="left" depart="727" />
    <vehicle id="right_240" type="passenger" route="right" depart="730" />
    <vehicle id="right_241" type="passenger" route="right" depart="731" />
    <vehicle id="right_242" type="passenger" route="right" depart="733" />
    <vehicle id="up_243" type="passenger" route="up" depart="741" color="1,0,0"/>
    <vehicle id="right_244" type="passenger" route="right" depart="745" />
    <vehicle id="down_245" type="passenger" route="down" depart="747" color="1,0,0"/>
    <vehicle id="right_246" type="passenger" route="right" depart="751" />
    <vehicle id="left_247" type="passenger" route="left" depart="752" />
    <vehicle id="up_248" type="passenger" route="up" depart="754" color="1,0,0"/>
    <vehicle id="right_249" type="passenger" route="right" depart="756" />
    <vehicle id="left_250" type="passenger" route="left" depart="758" />
    <vehicle id="up_251" type="passenger" route="up" depart="760" color="1,0,0"/>
    <vehicle id="right_252" type="passenger" route="right" depart="763" />
    <vehicle id="down_253" type="passenger" route="down" depart="765" color="1,0,0"/>
    <vehicle id="left_254" type="passenger" route="left" depart="782" />
    <vehicle id="down_255" type="passenger" route="down" depart="783" color="1,0,0"/>
    <vehicle id="left_256" type="passenger" route="left" depart="785" />
    <vehicle id="down_257" type="passenger" route="down" depart="792" color="1,0,0"/>
    <vehicle id="up_258" type="passenger" route="up" depart="795" color="1,0,0"/>
    <vehicle id="right_259" type="passenger" route="right" depart="801" />
    <vehicle id="up_260" type="passenger" route="up" depart="801" color="1,0,0"/>
    <vehicle id="up_261" type="passenger" route="up" depart="802" color="1,0,0"/>
    <vehicle id="down_262" type="passenger" route="down" depart="808" color="1,0,0"/>
    <vehicle id="right_263" type="passenger" route="right" depart="814" />
    <vehicle id="right_264" type="passenger" route="right" depart="823" />
    <vehicle id="down_265" type="passenger" route="down" depart="824" color="1,0,0"/>
    <vehicle id="left_266" type="passenger" route="left" depart="828" />
    <vehicle id="right_267" type="passenger" route="right" depart="830" />
    <vehicle id="down_268" type="passenger" route="down" depart="831" color="1,0,0"/>
    <vehicle id="left_269" type="passenger" route="left" depart="832" />
    <vehicle id="left_270" type="passenger" route="left" depart="841" />
    <vehicle id="left_271" type="passenger" route="left" depart="842" />
    <vehicle id="left_272" type="passenger" route="left" depart="843" />
    <vehicle id="right_273" type="passenger" route="right" depart="848" />
    <vehicle id="left_274" type="passenger" route="left" depart="850" />
    <vehicle id="down_275" type="passenger" route="down" depart="851" color="1,0,0"/>
    <vehicle id="right_276" type="passenger" route="right" depart="853" />
    <vehicle id="up_277" type="passenger" route="up" depart="855" color="1,0,0"/>
    <vehicle id="right_278" type="passenger" route="right" depart="857" />
    <vehicle id="down_279" type="passenger" route="down" depart="857" color="1,0,0"/>
    <vehicle id="up_280" type="passenger" route="up" depart="862" color="1,0,0"/>
    <vehicle id="left_281" type="passenger" route="left" depart="865" />
    <vehicle id="left_282" type="passenger" route="left" depart="867" />
    <vehicle id="up_283" type="passenger" route="up" depart="872" color="1,0,0"/>
    <vehicle id="left_284" type="passenger" route="left" depart="874" />
    <vehicle id="left_285" type="passenger" route="left" depart="875" />
    <vehicle id="left_286" type="passenger" route="left" depart="879" />
    <vehicle id="up_287" type="passenger" route="up" depart="881" color="1,0,0"/>
    <vehicle id="right_288" type="passenger" route="right" depart="886" />
    <vehicle id="left_289" type="passenger" route="left" depart="892" />
    <vehicle id="right_290" type="passenger" route="right" depart="903" />
    <vehicle id="right_291" type="passenger" route="right" depart="906" />
    <vehicle id="right_292" type="passenger" route="right" depart="909" />
    <vehicle id="up_293" type="passenger" route="up" depart="913" color="1,0,0"/>
    <vehicle id="down_294" type="passenger" route="down" depart="921" color="1,0,0"/>
    <vehicle id="left_295" type="passenger" route="left" depart="924" />
    <vehicle id="right_296" type="passenger" route="right" depart="928" />
    <vehicle id="up_297" type="passenger" route="up" depart="932" color="1,0,0"/>
    <vehicle id="up_298" type="passenger" route="up" depart="934" color="1,0,0"/>
    <vehicle id="right_299" type="passenger" route="right" depart="935" />
    <vehicle id="right_300" type="passenger" route="right" depart="939" />
    <vehicle id="left_301" type="passenger" route="left" depart="939" />
    <vehicle id="down_302" type="passenger" route="down" depart="941" color="1,0,0"/>
    <vehicle id="right_303" type="passenger" route="right" depart="944" />
    <vehicle id="right_304" type="passenger" route="right" depart="950" />
    <vehicle id="left_305" type="passenger" route="left" depart="950" />
    <vehicle id="left_306" type="passenger" route="left" depart="956" />
    <vehicle id="right_307" type="passenger" route="right" depart="958" />
    <vehicle id="right_308" type="passenger" route="right" depart="961" />
    <vehicle id="left_309" type="passenger" route="left" depart="966" />
    <vehicle id="up_310" type="passenger" route="up" depart="966" color="1,0,0"/>
    <vehicle id="left_311" type="passenger" route="left" depart="967" />
    <vehicle id="right_312" type="passenger" route="right" depart="976" />
    <vehicle id="down_313" type="passenger" route="down" depart="976" color="1,0,0"/>
    <vehicle id="right_314" type="passenger" route="right" depart="978" />
    <vehicle id="right_315" type="passenger" route="right" depart="986" />
    <vehicle id="left_316" type="passenger" route="left" depart="988" />
    <vehicle id="down_317" type="passenger" route="down" depart="988" color="1,0,0"/>
    <vehicle id="down_318" type="passenger" route="down" depart="989" color="1,0,0"/>
    <vehicle id="right_319" type="passenger" route="right" depart="990" />
    <vehicle id="down_320" type="passenger" route="down" depart="991" color="1,0,0"/>
    <vehicle id="right_321" type="passenger" route="right" depart="997" />
    <vehicle id="left_322" type="passenger" route="left" depart="999" />
    <vehicle id="right_323" type="passenger" route="right" depart="1000" />
    <vehicle id="down_324" type="passenger" route="down" depart="1002" color="1,0,0"/>
    <vehicle id="right_325" type="passenger" route="right" depart="1005" />
    <vehicle id="right_326" type="passenger" route="right" depart="1008" />
    <vehicle id="left_327" type="passenger" route="left" depart="1008" />
    <vehicle id="up_328" type="passenger" route="up" depart="1017" color="1,0,0"/>
    <vehicle id="right_329" type="passenger" route="right" depart="1018" />
    <vehicle id="right_330" type="passenger" route="right" depart="1019" />
    <vehicle id="up_331" type="passenger" route="up" depart="1019" color="1,0,0"/>
    <vehicle id="down_332" type="passenger" route="down" depart="1023" color="1,0,0"/>
    <vehicle id="up_333" type="passenger" route="up" depart="1024" color="1,0,0"/>
    <vehicle id="left_334" type="passenger" route="left" depart="1025" />
    <vehicle id="down_335" type="passenger" route="down" depart="1027" color="1,0,0"/>
    <vehicle id="right_336" type="passenger" route="right" depart="1031" />
    <vehicle id="left_337" type="passenger" route="left" depart="1031" />
    <vehicle id="down_338" type="passenger" route="down" depart="1035" color="1,0,0"/>
    <vehicle id="right_339" type="passenger" route="right" depart="1036" />
    <vehicle id="right_340" type="passenger" route="right" depart="1038" />
    <vehicle id="right_341" type="passenger" route="right" depart="1044" />
    <vehicle id="up_342" type="passenger" route="up" depart="1045" color="1,0,0"/>
    <vehicle id="right_343" type="passenger" route="right" depart="1049" />
    <vehicle id="right_344" type="passenger" route="right" depart="1052" />
    <vehicle id="down_345" type="passenger" route="down" depart="1062" color="1,0,0"/>
    <vehicle id="right_346" type="passenger" route="right" depart="1065" />
    <vehicle id="right_347" type="passenger" route="right" depart="1071" />
    <vehicle id="up_348" type="passenger" route="up" depart="1074" color="1,0,0"/>
    <vehicle id="right_349" type="passenger" route="right" depart="1076" />
    <vehicle id="down_350" type="passenger" route="down" depart="1077" color="1,0,0"/>
    <vehicle id="left_351" type="passenger" route="left" depart="1078" />
    <vehicle id="right_352" type="passenger" route="right" depart="1081" />
    <vehicle id="down_353" type="passenger" route="down" depart="1087" color="1,0,0"/>
    <vehicle id="up_354" type="passenger" route="up" depart="1088" color="1,0,0"/>
    <vehicle id="up_355" type="passenger" route="up" depart="1089" color="1,0,0"/>
    <vehicle id="up_356" type="passenger" route="up" depart="1090" color="1,0,0"/>
    <vehicle id="up_357" type="passenger" route="up" depart="1097" color="1,0,0"/>
    <vehicle id="right_358" type="passenger" route="right" depart="1098" />
    <vehicle id="up_359" type="passenger" route="up" depart="1102" color="1,0,0"/>
    <vehicle id="left_360" type="passenger" route="left" depart="1103" />
    <vehicle id="left_361" type="passenger" route="left" depart="1106" />
    <vehicle id="up_362" type="passenger" route="up" depart="1108" color="1,0,0"/>
    <vehicle id="right_363" type="passenger" route="right" depart="1111" />
    <vehicle id="up_364" type="passenger" route="up" depart="1112" color="1,0,0"/>
    <vehicle id="right_365" type="passenger" route="right" depart="1113" />
    <vehicle id="right_366" type="passenger" route="right" depart="1116" />
    <vehicle id="right_367" type="passenger" route="right" depart="1123" />
    <vehicle id="left_368" type="passenger" route="left" depart="1124" />
    <vehicle id="left_369" type="passenger" route="left" depart="1125" />
    <vehicle id="left_370" type="passenger" route="left" depart="1129" />
    <vehicle id="right_371" type="passenger" route="right" depart="1133" />
    <vehicle id="left_372" type="passenger" route="left" depart="1134" />
    <vehicle id="up_373" type="passenger" route="up" depart="1134" color="1,0,0"/>
    <vehicle id="up_374" type="passenger" route="up" depart="1136" color="1,0,0"/>
    <vehicle id="right_375" type="passenger" route="right" depart="1137" />
    <vehicle id="right_376" type="passenger" route="right" depart="1138" />
    <vehicle id="left_377" type="passenger" route="left" depart="1150" />
    <vehicle id="left_378" type="passenger" route="left" depart="1152" />
    <vehicle id="right_379" type="passenger" route="right" depart="1154" />
    <vehicle id="right_380" type="passenger" route="right" depart="1158" />