<routes>
            <vType id="typeWE" accel="0.8" decel="4.5" sigma="0.5" length="5" minGap="2.5" maxSpeed="16.67"     guiShape="passenger"/>
            <vType id="typeNS" accel="0.8" decel="4.5" sigma="0.5" length="7" minGap="3" maxSpeed="25" guiShape="bus"/>

            <route id="right" edges="51o 1i 2o 52i" />
            <route id="left" edges="52o 2i 1o 51i" />
            <route id="down" edges="54o 4i 3o 53i" />
    <vehicle id="left_0" type="typeWE" route="left" depart="0" />
    <vehicle id="left_1" type="typeWE" route="left" depart="2" />
    <vehicle id="right_2" type="typeWE" route="right" depart="3" />
    <vehicle id="right_3" type="typeWE" route="right" depart="4" />
    <vehicle id="left_4" type="typeWE" route="left" depart="4" />
    <vehicle id="left_5" type="typeWE" route="left" depart="6" />
    <vehicle id="down_6" type="typeNS" route="down" depart="8" color="1,0,0"/>
    <vehicle id="right_7" type="typeWE" route="right" depart="9" />
    <vehicle id="down_8" type="typeNS" route="down" depart="13" color="1,0,0"/>
    <vehicle id="down_9" type="typeNS" route="down" depart="14" color="1,0,0"/>
    <vehicle id="left_10" type="typeWE" route="left" depart="15" />
    <vehicle id="left_11" type="typeWE" route="left" depart="19" />
    <vehicle id="left_12" type="typeWE" route="left" depart="22" />
    <vehicle id="left_13" type="typeWE" route="left" depart="29" />
    <vehicle id="down_14" type="typeNS" route="down" depart="29" color="1,0,0"/>
    <vehicle id="right_15" type="typeWE" route="right" depart="30" />
    <vehicle id="left_16" type="typeWE" route="left" depart="31" />
    <vehicle id="left_17" type="typeWE" route="left" depart="33" />
    <vehicle id="left_18" type="typeWE" route="left" depart="35" />
    <vehicle id="left_19" type="typeWE" route="left" depart="41" />
    <vehicle id="right_20" type="typeWE" route="right" depart="42" />
    <vehicle id="down_21" type="typeNS" route="down" depart="43" color="1,0,0"/>
    <vehicle id="down_22" type="typeNS" route="down" depart="44" color="1,0,0"/>
    <vehicle id="left_23" type="typeWE" route="left" depart="45" />
    <vehicle id="left_24" type="typeWE" route="left" depart="46" />
    <vehicle id="left_25" type="typeWE" route="left" depart="51" />
    <vehicle id="left_26" type="typeWE" route="left" depart="53" />
    <vehicle id="right_27" type="typeWE" route="right" depart="55" />
    <vehicle id="left_28" type="typeWE" route="left" depart="56" />
    <vehicle id="left_29" type="typeWE" route="left" depart="58" />
    <vehicle id="down_30" type="typeNS" route="down" depart="58" color="1,0,0"/>
    <vehicle id="right_31" type="typeWE" route="right" depart="61" />
    <vehicle id="down_32" type="typeNS" route="down" depart="65" color="1,0,0"/>
    <vehicle id="right_33" type="typeWE" route="right" depart="69" />
    <vehicle id="down_34" type="typeNS" route="down" depart="74" color="1,0,0"/>
    <vehicle id="right_35" type="typeWE" route="right" depart="76" />
    <vehicle id="down_36" type="typeNS" route="down" depart="76" color="1,0,0"/>
    <vehicle id="right_37" type="typeWE" route="right" depart="77" />
    <vehicle id="left_38" type="typeWE" route="left" depart="78" />
    <vehicle id="right_39" type="typeWE" route="right" depart="84" />
    <vehicle id="left_40" type="typeWE" route="left" depart="85" />
    <vehicle id="down_41" type="typeNS" route="down" depart="89" color="1,0,0"/>
    <vehicle id="left_42" type="typeWE" route="left" depart="91" />
    <vehicle id="down_43" type="typeNS" route="down" depart="91" color="1,0,0"/>
    <vehicle id="right_44" type="typeWE" route="right" depart="92" />
    <vehicle id="down_45" type="typeNS" route="down" depart="95" color="1,0,0"/>
    <vehicle id="down_46" type="typeNS" route="down" depart="96" color="1,0,0"/>
    <vehicle id="right_47" type="typeWE" route="right" depart="99" />
    <vehicle id="left_48" type="typeWE" route="left" depart="99" />
    <vehicle id="left_49" type="typeWE" route="left" depart="101" />
    <vehicle id="down_50" type="typeNS" route="down" depart="101" color="1,0,0"/>
    <vehicle id="left_51" type="typeWE" route="left" depart="104" />
    <vehicle id="right_52" type="typeWE" route="right" depart="106" />
    <vehicle id="right_53" type="typeWE" route="right" depart="108" />
    <vehicle id="right_54" type="typeWE" route="right" depart="111" />
    <vehicle id="right_55" type="typeWE" route="right" depart="114" />
    <vehicle id="left_56" type="typeWE" route="left" depart="114" />
    <vehicle id="down_57" type="typeNS" route="down" depart="117" color="1,0,0"/>
    <vehicle id="left_58" type="typeWE" route="left" depart="118" />
    <vehicle id="left_59" type="typeWE" route="left" depart="119" />
    <vehicle id="down_60" type="typeNS" route="down" depart="122" color="1,0,0"/>
    <vehicle id="right_61" type="typeWE" route="right" depart="125" />
    <vehicle id="down_62" type="typeNS" route="down" depart="128" color="1,0,0"/>
    <vehicle id="left_63" type="typeWE" route="left" depart="131" />
    <vehicle id="right_64" type="typeWE" route="right" depart="135" />
    <vehicle id="left_65" type="typeWE" route="left" depart="135" />
    <vehicle id="right_66" type="typeWE" route="right" depart="138" />
    <vehicle id="left_67" type="typeWE" route="left" depart="138" />
    <vehicle id="down_68" type="typeNS" route="down" depart="139" color="1,0,0"/>
    <vehicle id="left_69" type="typeWE" route="left" depart="142" />
    <vehicle id="left_70" type="typeWE" route="left" depart="143" />
    <vehicle id="right_71" type="typeWE" route="right" depart="144" />
    <vehicle id="right_72" type="typeWE" route="right" depart="145" />
    <vehicle id="left_73" type="typeWE" route="left" depart="153" />
    <vehicle id="right_74" type="typeWE" route="right" depart="155" />
    <vehicle id="left_75" type="typeWE" route="left" depart="156" />
    <vehicle id="left_76" type="typeWE" route="left" depart="160" />
    <vehicle id="left_77" type="typeWE" route="left" depart="164" />
    <vehicle id="left_78" type="typeWE" route="left" depart="166" />
    <vehicle id="right_79" type="typeWE" route="right" depart="167" />
    <vehicle id="right_80" type="typeWE" route="right" depart="168" />
    <vehicle id="down_81" type="typeNS" route="down" depart="168" color="1,0,0"/>
    <vehicle id="left_82" type="typeWE" route="left" depart="169" />
    <vehicle id="left_83" type="typeWE" route="left" depart="172" />
    <vehicle id="down_84" type="typeNS" route="down" depart="172" color="1,0,0"/>
    <vehicle id="right_85" type="typeWE" route="right" depart="176" />
    <vehicle id="left_86" type="typeWE" route="left" depart="176" />
    <vehicle id="down_87" type="typeNS" route="down" depart="176" color="1,0,0"/>
    <vehicle id="down_88" type="typeNS" route="down" depart="179" color="1,0,0"/>
    <vehicle id="down_89" type="typeNS" route="down" depart="180" color="1,0,0"/>
    <vehicle id="right_90" type="typeWE" route="right" depart="181" />
    <vehicle id="right_91" type="typeWE" route="right" depart="183" />
    <vehicle id="right_92" type="typeWE" route="right" depart="184" />
    <vehicle id="left_93" type="typeWE" route="left" depart="185" />
    <vehicle id="down_94" type="typeNS" route="down" depart="188" color="1,0,0"/>
    <vehicle id="left_95" type="typeWE" route="left" depart="194" />
    <vehicle id="left_96" type="typeWE" route="left" depart="196" />
    <vehicle id="right_97" type="typeWE" route="right" depart="197" />
    <vehicle id="left_98" type="typeWE" route="left" depart="199" />
    <vehicle id="right_99" type="typeWE" route="right" depart="200" />
    <vehicle id="down_100" type="typeNS" route="down" depart="202" color="1,0,0"/>
    <vehicle id="right_101" type="typeWE" route="right" depart="207" />
    <vehicle id="left_102" type="typeWE" route="left" depart="207" />
    <vehicle id="down_103" type="typeNS" route="down" depart="207" color="1,0,0"/>
    <vehicle id="right_104" type="typeWE" route="right" depart="211" />
    <vehicle id="left_105" type="typeWE" route="left" depart="211" />
    <vehicle id="right_106" type="typeWE" route="right" depart="212" />
    <vehicle id="left_107" type="typeWE" route="left" depart="212" />
    <vehicle id="left_108" type="typeWE" route="left" depart="214" />
    <vehicle id="right_109" type="typeWE" route="right" depart="217" />
    <vehicle id="down_110" type="typeNS" route="down" depart="218" color="1,0,0"/>
    <vehicle id="left_111" type="typeWE" route="left" depart="219" />
    <vehicle id="right_112" type="typeWE" route="right" depart="221" />
    <vehicle id="right_113" type="typeWE" route="right" depart="227" />
    <vehicle id="left_114" type="typeWE" route="left" depart="227" />
    <vehicle id="down_115" type="typeNS" route="down" depart="227" color="1,0,0"/>
    <vehicle id="right_116" type="typeWE" route="right" depart="228" />
    <vehicle id="left_117" type="typeWE" route="left" depart="234" />
    <vehicle id="left_118" type="typeWE" route="left" depart="236" />
    <vehicle id="left_119" type="typeWE" route="left" depart="238" />
    <vehicle id="down_120" type="typeNS" route="down" depart="238" color="1,0,0"/>
    <vehicle id="right_121" type="typeWE" route="right" depart="240" />
    <vehicle id="down_122" type="typeNS" route="down" depart="242" color="1,0,0"/>
    <vehicle id="left_123" type="typeWE" route="left" depart="244" />
    <vehicle id="down_124" type="typeNS" route="down" depart="245" color="1,0,0"/>
    <vehicle id="right_125" type="typeWE" route="right" depart="256" />
    <vehicle id="left_126" type="typeWE" route="left" depart="257" />
    <vehicle id="left_127" type="typeWE" route="left" depart="258" />
    <vehicle id="down_128" type="typeNS" route="down" depart="259" color="1,0,0"/>
    <vehicle id="left_129" type="typeWE" route="left" depart="268" />
    <vehicle id="left_130" type="typeWE" route="left" depart="272" />
    <vehicle id="left_131" type="typeWE" route="left" depart="275" />
    <vehicle id="right_132" type="typeWE" route="right" depart="279" />
    <vehicle id="down_133" type="typeNS" route="down" depart="283" color="1,0,0"/>
    <vehicle id="right_134" type="typeWE" route="right" depart="284" />
    <vehicle id="right_135" type="typeWE" route="right" depart="286" />
    <vehicle id="right_136" type="typeWE" route="right" depart="288" />
    <vehicle id="left_137" type="typeWE" route="left" depart="289" />
    <vehicle id="right_138" type="typeWE" route="right" depart="291" />
    <vehicle id="right_139" type="typeWE" route="right" depart="294" />
    <vehicle id="left_140" type="typeWE" route="left" depart="295" />
    <vehicle id="right_141" type="typeWE" route="right" depart="298" />
    <vehicle id="down_142" type="typeNS" route="down" depart="302" color="1,0,0"/>
    <vehicle id="down_143" type="typeNS" route="down" depart="309" color="1,0,0"/>
    <vehicle id="right_144" type="typeWE" route="right" depart="311" />
    <vehicle id="right_145" type="typeWE" route="right" depart="315" />
    <vehicle id="down_146" type="typeNS" route="down" depart="315" color="1,0,0"/>
    <vehicle id="down_147" type="typeNS" route="down" depart="318" color="1,0,0"/>
    <vehicle id="left_148" type="typeWE" route="left" depart="321" />
    <vehicle id="right_149" type="typeWE" route="right" depart="322" />
    <vehicle id="down_150" type="typeNS" route="down" depart="323" color="1,0,0"/>
    <vehicle id="left_151" type="typeWE" route="left" depart="325" />
    <vehicle id="down_152" type="typeNS" route="down" depart="326" color="1,0,0"/>
    <vehicle id="left_153" type="typeWE" route="left" depart="327" />
    <vehicle id="left_154" type="typeWE" route="left" depart="330" />
    <vehicle id="down_155" type="typeNS" route="down" depart="331" color="1,0,0"/>
    <vehicle id="left_156" type="typeWE" route="left" depart="333" />
    <vehicle id="left_157" type="typeWE" route="left" depart="335" />
    <vehicle id="down_158" type="typeNS" route="down" depart="335" color="1,0,0"/>
    <vehicle id="down_159" type="typeNS" route="down" depart="337" color="1,0,0"/>
    <vehicle id="down_160" type="typeNS" route="down" depart="338" color="1,0,0"/>
    <vehicle id="left_161" type="typeWE" route="left" depart="339" />
    <vehicle id="left_162" type="typeWE" route="left" depart="341" />
    <vehicle id="right_163" type="typeWE" route="right" depart="342" />
    <vehicle id="right_164" type="typeWE" route="right" depart="343" />
    <vehicle id="left_165" type="typeWE" route="left" depart="344" />
    <vehicle id="down_166" type="typeNS" route="down" depart="344" color="1,0,0"/>
    <vehicle id="right_167" type="typeWE" route="right" depart="346" />
    <vehicle id="left_168" type="typeWE" route="left" depart="346" />
    <vehicle id="down_169" type="typeNS" route="down" depart="348" color="1,0,0"/>
    <vehicle id="down_170" type="typeNS" route="down" depart="349" color="1,0,0"/>
    <vehicle id="down_171" type="typeNS" route="down" depart="351" color="1,0,0"/>
    <vehicle id="down_172" type="typeNS" route="down" depart="353" color="1,0,0"/>
    <vehicle id="right_173" type="typeWE" route="right" depart="354" />
    <vehicle id="down_174" type="typeNS" route="down" depart="354" color="1,0,0"/>
    <vehicle id="down_175" type="typeNS" route="down" depart="357" color="1,0,0"/>
    <vehicle id="down_176" type="typeNS" route="down" depart="361" color="1,0,0"/>
    <vehicle id="right_177" type="typeWE" route="right" depart="363" />
    <vehicle id="down_178" type="typeNS" route="down" depart="363" color="1,0,0"/>
    <vehicle id="left_179" type="typeWE" route="left" depart="364" />
    <vehicle id="down_180" type="typeNS" route="down" depart="364" color="1,0,0"/>
    <vehicle id="right_181" type="typeWE" route="right" depart="367" />
    <vehicle id="left_182" type="typeWE" route="left" depart="371" />
    <vehicle id="right_183" type="typeWE" route="right" depart="375" />
    <vehicle id="left_184" type="typeWE" route="left" depart="376" />
    <vehicle id="down_185" type="typeNS" route="down" depart="377" color="1,0,0"/>
    <vehicle id="right_186" type="typeWE" route="right" depart="379" />
    <vehicle id="down_187" type="typeNS" route="down" depart="379" color="1,0,0"/>
    <vehicle id="down_188" type="typeNS" route="down" depart="382" color="1,0,0"/>
    <vehicle id="right_189" type="typeWE" route="right" depart="383" />
    <vehicle id="left_190" type="typeWE" route="left" depart="383" />
    <vehicle id="left_191" type="typeWE" route="left" depart="386" />
    <vehicle id="left_192" type="typeWE" route="left" depart="388" />
    <vehicle id="left_193" type="typeWE" route="left" depart="389" />
    <vehicle id="left_194" type="typeWE" route="left" depart="390" />
    <vehicle id="left_195" type="typeWE" route="left" depart="391" />
    <vehicle id="right_196" type="typeWE" route="right" depart="392" />
    <vehicle id="right_197" type="typeWE" route="right" depart="394" />
    <vehicle id="down_198" type="typeNS" route="down" depart="394" color="1,0,0"/>
    <vehicle id="right_199" type="typeWE" route="right" depart="395" />
    <vehicle id="left_200" type="typeWE" route="left" depart="397" />
    <vehicle id="down_201" type="typeNS" route="down" depart="397" color="1,0,0"/>
    <vehicle id="down_202" type="typeNS" route="down" depart="399" color="1,0,0"/>
    <vehicle id="left_203" type="typeWE" route="left" depart="403" />
    <vehicle id="right_204" type="typeWE" route="right" depart="406" />
    <vehicle id="left_205" type="typeWE" route="left" depart="406" />
    <vehicle id="right_206" type="typeWE" route="right" depart="412" />
    <vehicle id="left_207" type="typeWE" route="left" depart="413" />
    <vehicle id="down_208" type="typeNS" route="down" depart="414" color="1,0,0"/>
    <vehicle id="left_209" type="typeWE" route="left" depart="415" />
    <vehicle id="right_210" type="typeWE" route="right" depart="420" />
    <vehicle id="left_211" type="typeWE" route="left" depart="420" />
    <vehicle id="down_212" type="typeNS" route="down" depart="420" color="1,0,0"/>
    <vehicle id="left_213" type="typeWE" route="left" depart="422" />
    <vehicle id="right_214" type="typeWE" route="right" depart="424" />
    <vehicle id="down_215" type="typeNS" route="down" depart="426" color="1,0,0"/>
    <vehicle id="right_216" type="typeWE" route="right" depart="427" />
    <vehicle id="right_217" type="typeWE" route="right" depart="430" />
    <vehicle id="left_218" type="typeWE" route="left" depart="438" />
    <vehicle id="down_219" type="typeNS" route="down" depart="438" color="1,0,0"/>
    <vehicle id="left_220" type="typeWE" route="left" depart="439" />
    <vehicle id="down_221" type="typeNS" route="down" depart="440" color="1,0,0"/>
    <vehicle id="down_222" type="typeNS" route="down" depart="441" color="1,0,0"/>
    <vehicle id="left_223" type="typeWE" route="left" depart="442" />
    <vehicle id="down_224" type="typeNS" route="down" depart="451" color="1,0,0"/>
    <vehicle id="left_225" type="typeWE" route="left" depart="453" />
    <vehicle id="down_226" type="typeNS" route="down" depart="457" color="1,0,0"/>
    <vehicle id="right_227" type="typeWE" route="right" depart="458" />
    <vehicle id="down_228" type="typeNS" route="down" depart="459" color="1,0,0"/>
    <vehicle id="left_229" type="typeWE" route="left" depart="461" />
    <vehicle id="down_230" type="typeNS" route="down" depart="462" color="1,0,0"/>
    <vehicle id="down_231" type="typeNS" route="down" depart="463" color="1,0,0"/>
    <vehicle id="right_232" type="typeWE" route="right" depart="464" />
    <vehicle id="right_233" type="typeWE" route="right" depart="466" />
    <vehicle id="right_234" type="typeWE" route="right" depart="467" />
    <vehicle id="left_235" type="typeWE" route="left" depart="468" />
    <vehicle id="left_236" type="typeWE" route="left" depart="469" />
    <vehicle id="left_237" type="typeWE" route="left" depart="470" />
    <vehicle id="left_238" type="typeWE" route="left" depart="472" />
    <vehicle id="right_239" type="typeWE" route="right" depart="473" />
    <vehicle id="left_240" type="typeWE" route="left" depart="476" />
    <vehicle id="right_241" type="typeWE" route="right" depart="479" />
    <vehicle id="right_242" type="typeWE" route="right" depart="480" />
    <vehicle id="right_243" type="typeWE" route="right" depart="482" />
    <vehicle id="left_244" type="typeWE" route="left" depart="483" />
    <vehicle id="right_245" type="typeWE" route="right" depart="484" />
    <vehicle id="left_246" type="typeWE" route="left" depart="486" />
    <vehicle id="right_247" type="typeWE" route="right" depart="488" />
    <vehicle id="left_248" type="typeWE" route="left" depart="492" />
    <vehicle id="right_249" type="typeWE" route="right" depart="494" />
    <vehicle id="left_250" type="typeWE" route="left" depart="496" />
    <vehicle id="down_251" type="typeNS" route="down" depart="498" color="1,0,0"/>
    <vehicle id="down_252" type="typeNS" route="down" depart="500" color="1,0,0"/>
    <vehicle id="down_253" type="typeNS" route="down" depart="501" color="1,0,0"/>
    <vehicle id="right_254" type="typeWE" route="right" depart="502" />
    <vehicle id="right_255" type="typeWE" route="right" depart="507" />
    <vehicle id="right_256" type="typeWE" route="right" depart="511" />
    <vehicle id="down_257" type="typeNS" route="down" depart="512" color="1,0,0"/>
    <vehicle id="left_258" type="typeWE" route="left" depart="514" />
    <vehicle id="left_259" type="typeWE" route="left" depart="517" />
    <vehicle id="right_260" type="typeWE" route="right" depart="518" />
    <vehicle id="down_261" type="typeNS" route="down" depart="518" color="1,0,0"/>
    <vehicle id="down_262" type="typeNS" route="down" depart="520" color="1,0,0"/>
    <vehicle id="right_263" type="typeWE" route="right" depart="523" />
    <vehicle id="right_264" type="typeWE" route="right" depart="526" />
    <vehicle id="left_265" type="typeWE" route="left" depart="527" />
    <vehicle id="down_266" type="typeNS" route="down" depart="527" color="1,0,0"/>
    <vehicle id="right_267" type="typeWE" route="right" depart="528" />
    <vehicle id="left_268" type="typeWE" route="left" depart="528" />
    <vehicle id="down_269" type="typeNS" route="down" depart="531" color="1,0,0"/>
    <vehicle id="right_270" type="typeWE" route="right" depart="533" />
    <vehicle id="right_271" type="typeWE" route="right" depart="536" />
    <vehicle id="left_272" type="typeWE" route="left" depart="536" />
    <vehicle id="left_273" type="typeWE" route="left" depart="541" />
    <vehicle id="down_274" type="typeNS" route="down" depart="541" color="1,0,0"/>
    <vehicle id="right_275" type="typeWE" route="right" depart="545" />
    <vehicle id="left_276" type="typeWE" route="left" depart="547" />
    <vehicle id="left_277" type="typeWE" route="left" depart="549" />
    <vehicle id="left_278" type="typeWE" route="left" depart="552" />
    <vehicle id="left_279" type="typeWE" route="left" depart="554" />
    <vehicle id="right_280" type="typeWE" route="right" depart="559" />
    <vehicle id="down_281" type="typeNS" route="down" depart="559" color="1,0,0"/>
    <vehicle id="down_282" type="typeNS" route="down" depart="561" color="1,0,0"/>
    <vehicle id="right_283" type="typeWE" route="right" depart="564" />
    <vehicle id="right_284" type="typeWE" route="right" depart="565" />
    <vehicle id="left_285" type="typeWE" route="left" depart="565" />
    <vehicle id="right_286" type="typeWE" route="right" depart="568" />
    <vehicle id="down_287" type="typeNS" route="down" depart="573" color="1,0,0"/>
    <vehicle id="left_288" type="typeWE" route="left" depart="576" />
    <vehicle id="left_289" type="typeWE" route="left" depart="578" />
    <vehicle id="right_290" type="typeWE" route="right" depart="579" />
    <vehicle id="left_291" type="typeWE" route="left" depart="579" />
    <vehicle id="right_292" type="typeWE" route="right" depart="580" />
    <vehicle id="left_293" type="typeWE" route="left" depart="582" />
    <vehicle id="down_294" type="typeNS" route="down" depart="582" color="1,0,0"/>
    <vehicle id="left_295" type="typeWE" route="left" depart="592" />
    <vehicle id="left_296" type="typeWE" route="left" depart="598" />
    <vehicle id="down_297" type="typeNS" route="down" depart="600" color="1,0,0"/>
    <vehicle id="down_298" type="typeNS" route="down" depart="601" color="1,0,0"/>
    <vehicle id="left_299" type="typeWE" route="left" depart="602" />
    <vehicle id="left_300" type="typeWE" route="left" depart="606" />
    <vehicle id="left_301" type="typeWE" route="left" depart="608" />
    <vehicle id="right_302" type="typeWE" route="right" depart="609" />
    <vehicle id="right_303" type="typeWE" route="right" depart="612" />
    <vehicle id="down_304" type="typeNS" route="down" depart="612" color="1,0,0"/>
    <vehicle id="right_305" type="typeWE" route="right" depart="616" />
    <vehicle id="left_306" type="typeWE" route="left" depart="616" />
    <vehicle id="left_307" type="typeWE" route="left" depart="617" />
    <vehicle id="right_308" type="typeWE" route="right" depart="619" />
    <vehicle id="down_309" type="typeNS" route="down" depart="620" color="1,0,0"/>
    <vehicle id="left_310" type="typeWE" route="left" depart="621" />
    <vehicle id="down_311" type="typeNS" route="down" depart="621" color="1,0,0"/>
    <vehicle id="down_312" type="typeNS" route="down" depart="624" color="1,0,0"/>
    <vehicle id="down_313" type="typeNS" route="down" depart="625" color="1,0,0"/>
    <vehicle id="right_314" type="typeWE" route="right" depart="626" />
    <vehicle id="left_315" type="typeWE" route="left" depart="628" />
    <vehicle id="right_316" type="typeWE" route="right" depart="630" />
    <vehicle id="left_317" type="typeWE" route="left" depart="630" />
    <vehicle id="left_318" type="typeWE" route="left" depart="634" />
    <vehicle id="left_319" type="typeWE" route="left" depart="635" />
    <vehicle id="right_320" type="typeWE" route="right" depart="636" />
    <vehicle id="left_321" type="typeWE" route="left" depart="637" />
    <vehicle id="left_322" type="typeWE" route="left" depart="638" />
    <vehicle id="left_323" type="typeWE" route="left" depart="639" />
    <vehicle id="left_324" type="typeWE" route="left" depart="641" />
    <vehicle id="right_325" type="typeWE" route="right" depart="644" />
    <vehicle id="down_326" type="typeNS" route="down" depart="644" color="1,0,0"/>
    <vehicle id="down_327" type="typeNS" route="down" depart="645" color="1,0,0"/>
    <vehicle id="left_328" type="typeWE" route="left" depart="646" />
    <vehicle id="right_329" type="typeWE" route="right" depart="652" />
    <vehicle id="down_330" type="typeNS" route="down" depart="653" color="1,0,0"/>
    <vehicle id="right_331" type="typeWE" route="right" depart="654" />
    <vehicle id="down_332" type="typeNS" route="down" depart="657" color="1,0,0"/>
    <vehicle id="left_333" type="typeWE" route="left" depart="659" />
    <vehicle id="right_334" type="typeWE" route="right" depart="660" />
    <vehicle id="left_335" type="typeWE" route="left" depart="660" />
    <vehicle id="left_336" type="typeWE" route="left" depart="661" />
    <vehicle id="left_337" type="typeWE" route="left" depart="663" />
    <vehicle id="right_338" type="typeWE" route="right" depart="668" />
    <vehicle id="left_339" type="typeWE" route="left" depart="672" />
    <vehicle id="left_340" type="typeWE" route="left" depart="676" />
    <vehicle id="left_341" type="typeWE" route="left" depart="678" />
    <vehicle id="right_342" type="typeWE" route="right" depart="679" />
    <vehicle id="left_343" type="typeWE" route="left" depart="683" />
    <vehicle id="left_344" type="typeWE" route="left" depart="684" />
    <vehicle id="left_345" type="typeWE" route="left" depart="689" />
    <vehicle id="left_346" type="typeWE" route="left" depart="692" />
    <vehicle id="right_347" type="typeWE" route="right" depart="694" />
    <vehicle id="right_348" type="typeWE" route="right" depart="698" />
    <vehicle id="down_349" type="typeNS" route="down" depart="700" color="1,0,0"/>
    <vehicle id="right_350" type="typeWE" route="right" depart="701" />
    <vehicle id="right_351" type="typeWE" route="right" depart="704" />
    <vehicle id="down_352" type="typeNS" route="down" depart="706" color="1,0,0"/>
    <vehicle id="left_353" type="typeWE" route="left" depart="707" />
    <vehicle id="down_354" type="typeNS" route="down" depart="708" color="1,0,0"/>
    <vehicle id="left_355" type="typeWE" route="left" depart="710" />
    <vehicle id="down_356" type="typeNS" route="down" depart="710" color="1,0,0"/>
    <vehicle id="right_357" type="typeWE" route="right" depart="711" />
    <vehicle id="left_358" type="typeWE" route="left" depart="711" />
    <vehicle id="left_359" type="typeWE" route="left" depart="716" />
    <vehicle id="left_360" type="typeWE" route="left" depart="717" />
    <vehicle id="down_361" type="typeNS" route="down" depart="717" color="1,0,0"/>
    <vehicle id="right_362" type="typeWE" route="right" depart="718" />
    <vehicle id="right_363" type="typeWE" route="right" depart="720" />
    <vehicle id="down_364" type="typeNS" route="down" depart="720" color="1,0,0"/>
    <vehicle id="left_365" type="typeWE" route="left" depart="722" />
    <vehicle id="down_366" type="typeNS" route="down" depart="722" color="1,0,0"/>
    <vehicle id="right_367" type="typeWE" route="right" depart="724" />
    <vehicle id="down_368" type="typeNS" route="down" depart="726" color="1,0,0"/>
    <vehicle id="right_369" type="typeWE" route="right" depart="727" />
    <vehicle id="left_370" type="typeWE" route="left" depart="729" />
    <vehicle id="right_371" type="typeWE" route="right" depart="731" />
    <vehicle id="down_372" type="typeNS" route="down" depart="733" color="1,0,0"/>
    <vehicle id="down_373" type="typeNS" route="down" depart="736" color="1,0,0"/>
    <vehicle id="right_374" type="typeWE" route="right" depart="738" />
    <vehicle id="left_375" type="typeWE" route="left" depart="738" />
    <vehicle id="right_376" type="typeWE" route="right" depart="740" />
    <vehicle id="left_377" type="typeWE" route="left" depart="740" />
    <vehicle id="down_378" type="typeNS" route="down" depart="741" color="1,0,0"/>
    <vehicle id="right_379" type="typeWE" route="right" depart="742" />
    <vehicle id="left_380" type="typeWE" route="left" depart="743" />
    <vehicle id="right_381" type="typeWE" route="right" depart="744" />
    <vehicle id="right_382" type="typeWE" route="right" depart="746" />
    <vehicle id="left_383" type="typeWE" route="left" depart="748" />
    <vehicle id="left_384" type="typeWE" route="left" depart="749" />
    <vehicle id="down_385" type="typeNS" route="down" depart="750" color="1,0,0"/>
    <vehicle id="left_386" type="typeWE" route="left" depart="752" />
    <vehicle id="down_387" type="typeNS" route="down" depart="752" color="1,0,0"/>
    <vehicle id="left_388" type="typeWE" route="left" depart="756" />
    <vehicle id="left_389" type="typeWE" route="left" depart="761" />
    <vehicle id="left_390" type="typeWE" route="left" depart="768" />
    <vehicle id="down_391" type="typeNS" route="down" depart="772" color="1,0,0"/>
    <vehicle id="left_392" type="typeWE" route="left" depart="774" />
    <vehicle id="down_393" type="typeNS" route="down" depart="776" color="1,0,0"/>
    <vehicle id="down_394" type="typeNS" route="down" depart="780" color="1,0,0"/>
    <vehicle id="right_395" type="typeWE" route="right" depart="781" />
    <vehicle id="right_396" type="typeWE" route="right" depart="782" />
    <vehicle id="down_397" type="typeNS" route="down" depart="782" color="1,0,0"/>
    <vehicle id="left_398" type="typeWE" route="left" depart="786" />
    <vehicle id="right_399" type="typeWE" route="right" depart="789" />