<routes>
            <vType id="passenger" accel="0.8" decel="4.5" sigma="0.5" length="5" minGap="2.5" maxSpeed="16.67"     guiShape="passenger"/>
            <vType id="typeNS" accel="0.8" decel="4.5" sigma="0.5" length="7" minGap="3" maxSpeed="25" guiShape="bus"/>

            <route id="right" edges="51o 1i 2o 52i" />
            <route id="left" edges="52o 2i 1o 51i" />
            <route id="down" edges="54o 4i 3o 53i" />
            <route id="up" edges="53o 3i 4o 54i" />
            
    <vehicle id="left_0" type="passenger" route="left" depart="0" />
    <vehicle id="left_1" type="passenger" route="left" depart="2" />
    <vehicle id="right_2" type="passenger" route="right" depart="3" />
    <vehicle id="left_3" type="passenger" route="left" depart="3" />
    <vehicle id="right_4" type="passenger" route="right" depart="4" />
    <vehicle id="up_5" type="passenger" route="up" depart="4" color="1,0,0"/>
    <vehicle id="down_6" type="passenger" route="down" depart="6" color="1,0,0"/>
    <vehicle id="left_7" type="passenger" route="left" depart="10" />
    <vehicle id="right_8" type="passenger" route="right" depart="11" />
    <vehicle id="right_9" type="passenger" route="right" depart="14" />
    <vehicle id="up_10" type="passenger" route="up" depart="16" color="1,0,0"/>
    <vehicle id="right_11" type="passenger" route="right" depart="22" />
    <vehicle id="left_12" type="passenger" route="left" depart="22" />
    <vehicle id="down_13" type="passenger" route="down" depart="23" color="1,0,0"/>
    <vehicle id="right_14" type="passenger" route="right" depart="25" />
    <vehicle id="left_15" type="passenger" route="left" depart="28" />
    <vehicle id="right_16" type="passenger" route="right" depart="31" />
    <vehicle id="down_17" type="passenger" route="down" depart="31" color="1,0,0"/>
    <vehicle id="up_18" type="passenger" route="up" depart="32" color="1,0,0"/>
    <vehicle id="down_19" type="passenger" route="down" depart="33" color="1,0,0"/>
    <vehicle id="right_20" type="passenger" route="right" depart="34" />
    <vehicle id="right_21" type="passenger" route="right" depart="37" />
    <vehicle id="right_22" type="passenger" route="right" depart="40" />
    <vehicle id="left_23" type="passenger" route="left" depart="41" />
    <vehicle id="right_24" type="passenger" route="right" depart="42" />
    <vehicle id="left_25" type="passenger" route="left" depart="42" />
    <vehicle id="right_26" type="passenger" route="right" depart="44" />
    <vehicle id="right_27" type="passenger" route="right" depart="47" />
    <vehicle id="right_28" type="passenger" route="right" depart="48" />
    <vehicle id="left_29" type="passenger" route="left" depart="49" />
    <vehicle id="up_30" type="passenger" route="up" depart="51" color="1,0,0"/>
    <vehicle id="right_31" type="passenger" route="right" depart="56" />
    <vehicle id="right_32" type="passenger" route="right" depart="57" />
    <vehicle id="down_33" type="passenger" route="down" depart="57" color="1,0,0"/>
    <vehicle id="right_34" type="passenger" route="right" depart="61" />
    <vehicle id="right_35" type="passenger" route="right" depart="63" />
    <vehicle id="right_36" type="passenger" route="right" depart="64" />
    <vehicle id="left_37" type="passenger" route="left" depart="67" />
    <vehicle id="right_38" type="passenger" route="right" depart="69" />
    <vehicle id="down_39" type="passenger" route="down" depart="72" color="1,0,0"/>
    <vehicle id="left_40" type="passenger" route="left" depart="74" />
    <vehicle id="down_41" type="passenger" route="down" depart="74" color="1,0,0"/>
    <vehicle id="right_42" type="passenger" route="right" depart="76" />
    <vehicle id="left_43" type="passenger" route="left" depart="76" />
    <vehicle id="right_44" type="passenger" route="right" depart="78" />
    <vehicle id="left_45" type="passenger" route="left" depart="78" />
    <vehicle id="right_46" type="passenger" route="right" depart="81" />
    <vehicle id="left_47" type="passenger" route="left" depart="83" />
    <vehicle id="right_48" type="passenger" route="right" depart="84" />
    <vehicle id="down_49" type="passenger" route="down" depart="85" color="1,0,0"/>
    <vehicle id="left_50" type="passenger" route="left" depart="88" />
    <vehicle id="right_51" type="passenger" route="right" depart="92" />
    <vehicle id="up_52" type="passenger" route="up" depart="93" color="1,0,0"/>
    <vehicle id="down_53" type="passenger" route="down" depart="98" color="1,0,0"/>
    <vehicle id="left_54" type="passenger" route="left" depart="101" />
    <vehicle id="down_55" type="passenger" route="down" depart="101" color="1,0,0"/>
    <vehicle id="up_56" type="passenger" route="up" depart="103" color="1,0,0"/>
    <vehicle id="right_57" type="passenger" route="right" depart="104" />
    <vehicle id="up_58" type="passenger" route="up" depart="104" color="1,0,0"/>
    <vehicle id="up_59" type="passenger" route="up" depart="106" color="1,0,0"/>
    <vehicle id="right_60" type="passenger" route="right" depart="108" />
    <vehicle id="up_61" type="passenger" route="up" depart="108" color="1,0,0"/>
    <vehicle id="right_62" type="passenger" route="right" depart="109" />
    <vehicle id="right_63" type="passenger" route="right" depart="115" />
    <vehicle id="left_64" type="passenger" route="left" depart="116" />
    <vehicle id="left_65" type="passenger" route="left" depart="117" />
    <vehicle id="left_66" type="passenger" route="left" depart="120" />
    <vehicle id="left_67" type="passenger" route="left" depart="123" />
    <vehicle id="left_68" type="passenger" route="left" depart="124" />
    <vehicle id="left_69" type="passenger" route="left" depart="125" />
    <vehicle id="right_70" type="passenger" route="right" depart="126" />
    <vehicle id="right_71" type="passenger" route="right" depart="127" />
    <vehicle id="left_72" type="passenger" route="left" depart="129" />
    <vehicle id="down_73" type="passenger" route="down" depart="129" color="1,0,0"/>
    <vehicle id="right_74" type="passenger" route="right" depart="132" />
    <vehicle id="left_75" type="passenger" route="left" depart="132" />
    <vehicle id="right_76" type="passenger" route="right" depart="134" />
    <vehicle id="up_77" type="passenger" route="up" depart="135" color="1,0,0"/>
    <vehicle id="left_78" type="passenger" route="left" depart="137" />
    <vehicle id="right_79" type="passenger" route="right" depart="138" />
    <vehicle id="right_80" type="passenger" route="right" depart="139" />
    <vehicle id="left_81" type="passenger" route="left" depart="147" />
    <vehicle id="right_82" type="passenger" route="right" depart="148" />
    <vehicle id="down_83" type="passenger" route="down" depart="149" color="1,0,0"/>
    <vehicle id="right_84" type="passenger" route="right" depart="150" />
    <vehicle id="right_85" type="passenger" route="right" depart="152" />
    <vehicle id="left_86" type="passenger" route="left" depart="155" />
    <vehicle id="left_87" type="passenger" route="left" depart="158" />
    <vehicle id="right_88" type="passenger" route="right" depart="159" />
    <vehicle id="left_89" type="passenger" route="left" depart="159" />
    <vehicle id="up_90" type="passenger" route="up" depart="162" color="1,0,0"/>
    <vehicle id="right_91" type="passenger" route="right" depart="164" />
    <vehicle id="down_92" type="passenger" route="down" depart="164" color="1,0,0"/>
    <vehicle id="left_93" type="passenger" route="left" depart="170" />
    <vehicle id="up_94" type="passenger" route="up" depart="170" color="1,0,0"/>
    <vehicle id="right_95" type="passenger" route="right" depart="171" />
    <vehicle id="right_96" type="passenger" route="right" depart="172" />
    <vehicle id="up_97" type="passenger" route="up" depart="175" color="1,0,0"/>
    <vehicle id="right_98" type="passenger" route="right" depart="176" />
    <vehicle id="left_99" type="passenger" route="left" depart="177" />
    <vehicle id="up_100" type="passenger" route="up" depart="178" color="1,0,0"/>
    <vehicle id="right_101" type="passenger" route="right" depart="179" />
    <vehicle id="right_102" type="passenger" route="right" depart="180" />
    <vehicle id="right_103" type="passenger" route="right" depart="182" />
    <vehicle id="left_104" type="passenger" route="left" depart="183" />
    <vehicle id="left_105" type="passenger" route="left" depart="184" />
    <vehicle id="right_106" type="passenger" route="right" depart="192" />
    <vehicle id="right_107" type="passenger" route="right" depart="193" />
    <vehicle id="left_108" type="passenger" route="left" depart="201" />
    <vehicle id="right_109" type="passenger" route="right" depart="203" />
    <vehicle id="left_110" type="passenger" route="left" depart="204" />
    <vehicle id="down_111" type="passenger" route="down" depart="206" color="1,0,0"/>
    <vehicle id="left_112" type="passenger" route="left" depart="209" />
    <vehicle id="up_113" type="passenger" route="up" depart="212" color="1,0,0"/>
    <vehicle id="right_114" type="passenger" route="right" depart="213" />
    <vehicle id="down_115" type="passenger" route="down" depart="214" color="1,0,0"/>
    <vehicle id="right_116" type="passenger" route="right" depart="216" />
    <vehicle id="right_117" type="passenger" route="right" depart="217" />
    <vehicle id="right_118" type="passenger" route="right" depart="218" />
    <vehicle id="left_119" type="passenger" route="left" depart="218" />
    <vehicle id="right_120" type="passenger" route="right" depart="219" />
    <vehicle id="down_121" type="passenger" route="down" depart="220" color="1,0,0"/>
    <vehicle id="right_122" type="passenger" route="right" depart="227" />
    <vehicle id="left_123" type="passenger" route="left" depart="232" />
    <vehicle id="right_124" type="passenger" route="right" depart="233" />
    <vehicle id="left_125" type="passenger" route="left" depart="233" />
    <vehicle id="left_126" type="passenger" route="left" depart="236" />
    <vehicle id="right_127" type="passenger" route="right" depart="239" />
    <vehicle id="right_128" type="passenger" route="right" depart="241" />
    <vehicle id="down_129" type="passenger" route="down" depart="241" color="1,0,0"/>
    <vehicle id="up_130" type="passenger" route="up" depart="242" color="1,0,0"/>
    <vehicle id="right_131" type="passenger" route="right" depart="244" />
    <vehicle id="right_132" type="passenger" route="right" depart="245" />
    <vehicle id="left_133" type="passenger" route="left" depart="247" />
    <vehicle id="up_134" type="passenger" route="up" depart="248" color="1,0,0"/>
    <vehicle id="right_135" type="passenger" route="right" depart="250" />
    <vehicle id="left_136" type="passenger" route="left" depart="253" />
    <vehicle id="right_137" type="passenger" route="right" depart="254" />
    <vehicle id="down_138" type="passenger" route="down" depart="254" color="1,0,0"/>
    <vehicle id="right_139" type="passenger" route="right" depart="255" />
    <vehicle id="right_140" type="passenger" route="right" depart="256" />
    <vehicle id="down_141" type="passenger" route="down" depart="256" color="1,0,0"/>
    <vehicle id="right_142" type="passenger" route="right" depart="257" />
    <vehicle id="left_143" type="passenger" route="left" depart="257" />
    <vehicle id="left_144" type="passenger" route="left" depart="258" />
    <vehicle id="down_145" type="passenger" route="down" depart="258" color="1,0,0"/>
    <vehicle id="right_146" type="passenger" route="right" depart="259" />
    <vehicle id="up_147" type="passenger" route="up" depart="259" color="1,0,0"/>
    <vehicle id="left_148" type="passenger" route="left" depart="262" />
    <vehicle id="up_149" type="passenger" route="up" depart="263" color="1,0,0"/>
    <vehicle id="left_150" type="passenger" route="left" depart="265" />
    <vehicle id="down_151" type="passenger" route="down" depart="265" color="1,0,0"/>
    <vehicle id="right_152" type="passenger" route="right" depart="266" />
    <vehicle id="left_153" type="passenger" route="left" depart="268" />
    <vehicle id="left_154" type="passenger" route="left" depart="271" />
    <vehicle id="left_155" type="passenger" route="left" depart="272" />
    <vehicle id="up_156" type="passenger" route="up" depart="272" color="1,0,0"/>
    <vehicle id="left_157" type="passenger" route="left" depart="273" />
    <vehicle id="down_158" type="passenger" route="down" depart="273" color="1,0,0"/>
    <vehicle id="left_159" type="passenger" route="left" depart="275" />
    <vehicle id="left_160" type="passenger" route="left" depart="281" />
    <vehicle id="left_161" type="passenger" route="left" depart="282" />
    <vehicle id="left_162" type="passenger" route="left" depart="283" />
    <vehicle id="left_163" type="passenger" route="left" depart="284" />
    <vehicle id="up_164" type="passenger" route="up" depart="284" color="1,0,0"/>
    <vehicle id="right_165" type="passenger" route="right" depart="287" />
    <vehicle id="left_166" type="passenger" route="left" depart="287" />
    <vehicle id="left_167" type="passenger" route="left" depart="291" />
    <vehicle id="right_168" type="passenger" route="right" depart="292" />
    <vehicle id="down_169" type="passenger" route="down" depart="293" color="1,0,0"/>
    <vehicle id="right_170" type="passenger" route="right" depart="294" />
    <vehicle id="down_171" type="passenger" route="down" depart="295" color="1,0,0"/>
    <vehicle id="right_172" type="passenger" route="right" depart="296" />
    <vehicle id="left_173" type="passenger" route="left" depart="296" />
    <vehicle id="right_174" type="passenger" route="right" depart="298" />
    <vehicle id="left_175" type="passenger" route="left" depart="298" />
    <vehicle id="right_176" type="passenger" route="right" depart="302" />
    <vehicle id="right_177" type="passenger" route="right" depart="309" />
    <vehicle id="right_178" type="passenger" route="right" depart="310" />
    <vehicle id="right_179" type="passenger" route="right" depart="311" />
    <vehicle id="down_180" type="passenger" route="down" depart="311" color="1,0,0"/>
    <vehicle id="right_181" type="passenger" route="right" depart="315" />
    <vehicle id="left_182" type="passenger" route="left" depart="315" />
    <vehicle id="right_183" type="passenger" route="right" depart="317" />
    <vehicle id="right_184" type="passenger" route="right" depart="318" />
    <vehicle id="right_185" type="passenger" route="right" depart="320" />
    <vehicle id="left_186" type="passenger" route="left" depart="320" />
    <vehicle id="right_187" type="passenger" route="right" depart="329" />
    <vehicle id="down_188" type="passenger" route="down" depart="330" color="1,0,0"/>
    <vehicle id="left_189" type="passenger" route="left" depart="331" />
    <vehicle id="right_190" type="passenger" route="right" depart="340" />
    <vehicle id="left_191" type="passenger" route="left" depart="343" />
    <vehicle id="down_192" type="passenger" route="down" depart="343" color="1,0,0"/>
    <vehicle id="right_193" type="passenger" route="right" depart="344" />
    <vehicle id="up_194" type="passenger" route="up" depart="344" color="1,0,0"/>
    <vehicle id="right_195" type="passenger" route="right" depart="346" />
    <vehicle id="right_196" type="passenger" route="right" depart="347" />
    <vehicle id="up_197" type="passenger" route="up" depart="347" color="1,0,0"/>
    <vehicle id="right_198" type="passenger" route="right" depart="348" />
    <vehicle id="left_199" type="passenger" route="left" depart="350" />
    <vehicle id="left_200" type="passenger" route="left" depart="351" />
    <vehicle id="right_201" type="passenger" route="right" depart="352" />
    <vehicle id="left_202" type="passenger" route="left" depart="354" />
    <vehicle id="up_203" type="passenger" route="up" depart="354" color="1,0,0"/>
    <vehicle id="left_204" type="passenger" route="left" depart="357" />
    <vehicle id="left_205" type="passenger" route="left" depart="359" />
    <vehicle id="right_206" type="passenger" route="right" depart="360" />
    <vehicle id="down_207" type="passenger" route="down" depart="361" color="1,0,0"/>
    <vehicle id="down_208" type="passenger" route="down" depart="362" color="1,0,0"/>
    <vehicle id="right_209" type="passenger" route="right" depart="363" />
    <vehicle id="right_210" type="passenger" route="right" depart="366" />
    <vehicle id="left_211" type="passenger" route="left" depart="369" />
    <vehicle id="down_212" type="passenger" route="down" depart="370" color="1,0,0"/>
    <vehicle id="left_213" type="passenger" route="left" depart="372" />
    <vehicle id="right_214" type="passenger" route="right" depart="374" />
    <vehicle id="left_215" type="passenger" route="left" depart="376" />
    <vehicle id="down_216" type="passenger" route="down" depart="376" color="1,0,0"/>
    <vehicle id="right_217" type="passenger" route="right" depart="380" />
    <vehicle id="left_218" type="passenger" route="left" depart="380" />
    <vehicle id="left_219" type="passenger" route="left" depart="383" />
    <vehicle id="down_220" type="passenger" route="down" depart="384" color="1,0,0"/>
    <vehicle id="up_221" type="passenger" route="up" depart="385" color="1,0,0"/>
    <vehicle id="right_222" type="passenger" route="right" depart="388" />
    <vehicle id="right_223" type="passenger" route="right" depart="389" />
    <vehicle id="down_224" type="passenger" route="down" depart="390" color="1,0,0"/>
    <vehicle id="left_225" type="passenger" route="left" depart="392" />
    <vehicle id="down_226" type="passenger" route="down" depart="395" color="1,0,0"/>
    <vehicle id="right_227" type="passenger" route="right" depart="396" />
    <vehicle id="left_228" type="passenger" route="left" depart="396" />
    <vehicle id="left_229" type="passenger" route="left" depart="400" />
    <vehicle id="right_230" type="passenger" route="right" depart="402" />
    <vehicle id="left_231" type="passenger" route="left" depart="402" />
    <vehicle id="right_232" type="passenger" route="right" depart="406" />
    <vehicle id="left_233" type="passenger" route="left" depart="406" />
    <vehicle id="right_234" type="passenger" route="right" depart="407" />
    <vehicle id="down_235" type="passenger" route="down" depart="410" color="1,0,0"/>
    <vehicle id="right_236" type="passenger" route="right" depart="412" />
    <vehicle id="left_237" type="passenger" route="left" depart="414" />
    <vehicle id="up_238" type="passenger" route="up" depart="415" color="1,0,0"/>
    <vehicle id="left_239" type="passenger" route="left" depart="419" />
    <vehicle id="up_240" type="passenger" route="up" depart="419" color="1,0,0"/>
    <vehicle id="left_241" type="passenger" route="left" depart="421" />
    <vehicle id="right_242" type="passenger" route="right" depart="423" />
    <vehicle id="up_243" type="passenger" route="up" depart="423" color="1,0,0"/>
    <vehicle id="right_244" type="passenger" route="right" depart="424" />
    <vehicle id="right_245" type="passenger" route="right" depart="426" />
    <vehicle id="left_246" type="passenger" route="left" depart="430" />
    <vehicle id="left_247" type="passenger" route="left" depart="432" />
    <vehicle id="left_248" type="passenger" route="left" depart="433" />
    <vehicle id="up_249" type="passenger" route="up" depart="433" color="1,0,0"/>
    <vehicle id="left_250" type="passenger" route="left" depart="434" />
    <vehicle id="down_251" type="passenger" route="down" depart="434" color="1,0,0"/>
    <vehicle id="right_252" type="passenger" route="right" depart="435" />
    <vehicle id="up_253" type="passenger" route="up" depart="436" color="1,0,0"/>
    <vehicle id="right_254" type="passenger" route="right" depart="437" />
    <vehicle id="right_255" type="passenger" route="right" depart="441" />
    <vehicle id="left_256" type="passenger" route="left" depart="444" />
    <vehicle id="down_257" type="passenger" route="down" depart="450" color="1,0,0"/>
    <vehicle id="left_258" type="passenger" route="left" depart="451" />
    <vehicle id="up_259" type="passenger" route="up" depart="451" color="1,0,0"/>
    <vehicle id="left_260" type="passenger" route="left" depart="456" />
    <vehicle id="right_261" type="passenger" route="right" depart="459" />
    <vehicle id="right_262" type="passenger" route="right" depart="462" />
    <vehicle id="left_263" type="passenger" route="left" depart="462" />
    <vehicle id="right_264" type="passenger" route="right" depart="463" />
    <vehicle id="left_265" type="passenger" route="left" depart="464" />
    <vehicle id="down_266" type="passenger" route="down" depart="465" color="1,0,0"/>
    <vehicle id="right_267" type="passenger" route="right" depart="466" />
    <vehicle id="left_268" type="passenger" route="left" depart="466" />
    <vehicle id="down_269" type="passenger" route="down" depart="468" color="1,0,0"/>
    <vehicle id="left_270" type="passenger" route="left" depart="469" />
    <vehicle id="left_271" type="passenger" route="left" depart="471" />
    <vehicle id="right_272" type="passenger" route="right" depart="475" />
    <vehicle id="up_273" type="passenger" route="up" depart="475" color="1,0,0"/>
    <vehicle id="down_274" type="passenger" route="down" depart="476" color="1,0,0"/>
    <vehicle id="right_275" type="passenger" route="right" depart="477" />
    <vehicle id="right_276" type="passenger" route="right" depart="478" />
    <vehicle id="right_277" type="passenger" route="right" depart="479" />
    <vehicle id="down_278" type="passenger" route="down" depart="479" color="1,0,0"/>
    <vehicle id="right_279" type="passenger" route="right" depart="481" />
    <vehicle id="right_280" type="passenger" route="right" depart="483" />
    <vehicle id="down_281" type="passenger" route="down" depart="483" color="1,0,0"/>
    <vehicle id="left_282" type="passenger" route="left" depart="484" />
    <vehicle id="up_283" type="passenger" route="up" depart="484" color="1,0,0"/>
    <vehicle id="right_284" type="passenger" route="right" depart="489" />
    <vehicle id="right_285" type="passenger" route="right" depart="490" />
    <vehicle id="left_286" type="passenger" route="left" depart="490" />
    <vehicle id="down_287" type="passenger" route="down" depart="490" color="1,0,0"/>
    <vehicle id="right_288" type="passenger" route="right" depart="492" />
    <vehicle id="left_289" type="passenger" route="left" depart="493" />
    <vehicle id="down_290" type="passenger" route="down" depart="494" color="1,0,0"/>
    <vehicle id="right_291" type="passenger" route="right" depart="495" />
    <vehicle id="left_292" type="passenger" route="left" depart="495" />
    <vehicle id="right_293" type="passenger" route="right" depart="496" />
    <vehicle id="right_294" type="passenger" route="right" depart="497" />
    <vehicle id="down_295" type="passenger" route="down" depart="497" color="1,0,0"/>
    <vehicle id="right_296" type="passenger" route="right" depart="500" />
    <vehicle id="right_297" type="passenger" route="right" depart="501" />
    <vehicle id="left_298" type="passenger" route="left" depart="504" />
    <vehicle id="left_299" type="passenger" route="left" depart="507" />
    <vehicle id="left_300" type="passenger" route="left" depart="509" />
    <vehicle id="down_301" type="passenger" route="down" depart="512" color="1,0,0"/>
    <vehicle id="left_302" type="passenger" route="left" depart="513" />
    <vehicle id="right_303" type="passenger" route="right" depart="514" />
    <vehicle id="right_304" type="passenger" route="right" depart="517" />
    <vehicle id="right_305" type="passenger" route="right" depart="519" />
    <vehicle id="left_306" type="passenger" route="left" depart="519" />
    <vehicle id="right_307" type="passenger" route="right" depart="524" />
    <vehicle id="down_308" type="passenger" route="down" depart="525" color="1,0,0"/>
    <vehicle id="up_309" type="passenger" route="up" depart="525" color="1,0,0"/>
    <vehicle id="right_310" type="passenger" route="right" depart="528" />
    <vehicle id="right_311" type="passenger" route="right" depart="530" />
    <vehicle id="down_312" type="passenger" route="down" depart="530" color="1,0,0"/>
    <vehicle id="down_313" type="passenger" route="down" depart="531" color="1,0,0"/>
    <vehicle id="right_314" type="passenger" route="right" depart="533" />
    <vehicle id="left_315" type="passenger" route="left" depart="533" />
    <vehicle id="left_316" type="passenger" route="left" depart="537" />
    <vehicle id="right_317" type="passenger" route="right" depart="538" />
    <vehicle id="left_318" type="passenger" route="left" depart="538" />
    <vehicle id="right_319" type="passenger" route="right" depart="540" />
    <vehicle id="down_320" type="passenger" route="down" depart="540" color="1,0,0"/>
    <vehicle id="up_321" type="passenger" route="up" depart="541" color="1,0,0"/>
    <vehicle id="right_322" type="passenger" route="right" depart="542" />
    <vehicle id="right_323" type="passenger" route="right" depart="543" />
    <vehicle id="right_324" type="passenger" route="right" depart="545" />
    <vehicle id="left_325" type="passenger" route="left" depart="545" />
    <vehicle id="right_326" type="passenger" route="right" depart="547" />
    <vehicle id="left_327" type="passenger" route="left" depart="548" />
    <vehicle id="left_328" type="passenger" route="left" depart="550" />
    <vehicle id="down_329" type="passenger" route="down" depart="552" color="1,0,0"/>
    <vehicle id="down_330" type="passenger" route="down" depart="553" color="1,0,0"/>
    <vehicle id="right_331" type="passenger" route="right" depart="555" />
    <vehicle id="left_332" type="passenger" route="left" depart="555" />
    <vehicle id="left_333" type="passenger" route="left" depart="556" />
    <vehicle id="down_334" type="passenger" route="down" depart="557" color="1,0,0"/>
    <vehicle id="right_335" type="passenger" route="right" depart="558" />
    <vehicle id="down_336" type="passenger" route="down" depart="559" color="1,0,0"/>
    <vehicle id="left_337" type="passenger" route="left" depart="561" />
    <vehicle id="right_338" type="passenger" route="right" depart="562" />
    <vehicle id="right_339" type="passenger" route="right" depart="563" />
    <vehicle id="left_340" type="passenger" route="left" depart="564" />
    <vehicle id="left_341" type="passenger" route="left" depart="567" />
    <vehicle id="right_342" type="passenger" route="right" depart="568" />
    <vehicle id="right_343" type="passenger" route="right" depart="570" />
    <vehicle id="right_344" type="passenger" route="right" depart="571" />
    <vehicle id="left_345" type="passenger" route="left" depart="576" />
    <vehicle id="down_346" type="passenger" route="down" depart="579" color="1,0,0"/>
    <vehicle id="up_347" type="passenger" route="up" depart="580" color="1,0,0"/>
    <vehicle id="down_348" type="passenger" route="down" depart="582" color="1,0,0"/>
    <vehicle id="down_349" type="passenger" route="down" depart="585" color="1,0,0"/>
    <vehicle id="right_350" type="passenger" route="right" depart="587" />
    <vehicle id="right_351" type="passenger" route="right" depart="593" />
    <vehicle id="up_352" type="passenger" route="up" depart="593" color="1,0,0"/>
    <vehicle id="left_353" type="passenger" route="left" depart="594" />
    <vehicle id="right_354" type="passenger" route="right" depart="596" />
    <vehicle id="left_355" type="passenger" route="left" depart="596" />
    <vehicle id="right_356" type="passenger" route="right" depart="601" />
    <vehicle id="left_357" type="passenger" route="left" depart="601" />
    <vehicle id="right_358" type="passenger" route="right" depart="602" />
    <vehicle id="right_359" type="passenger" route="right" depart="603" />
    <vehicle id="left_360" type="passenger" route="left" depart="605" />
    <vehicle id="right_361" type="passenger" route="right" depart="606" />
    <vehicle id="down_362" type="passenger" route="down" depart="606" color="1,0,0"/>
    <vehicle id="right_363" type="passenger" route="right" depart="609" />
    <vehicle id="left_364" type="passenger" route="left" depart="609" />
    <vehicle id="right_365" type="passenger" route="right" depart="612" />
    <vehicle id="left_366" type="passenger" route="left" depart="613" />
    <vehicle id="left_367" type="passenger" route="left" depart="614" />
    <vehicle id="right_368" type="passenger" route="right" depart="617" />
    <vehicle id="right_369" type="passenger" route="right" depart="619" />
    <vehicle id="down_370" type="passenger" route="down" depart="619" color="1,0,0"/>
    <vehicle id="left_371" type="passenger" route="left" depart="622" />
    <vehicle id="left_372" type="passenger" route="left" depart="627" />
    <vehicle id="right_373" type="passenger" route="right" depart="629" />
    <vehicle id="up_374" type="passenger" route="up" depart="630" color="1,0,0"/>
    <vehicle id="right_375" type="passenger" route="right" depart="634" />
    <vehicle id="left_376" type="passenger" route="left" depart="634" />
    <vehicle id="right_377" type="passenger" route="right" depart="635" />
    <vehicle id="up_378" type="passenger" route="up" depart="635" color="1,0,0"/>
    <vehicle id="left_379" type="passenger" route="left" depart="637" />
    <vehicle id="right_380" type="passenger" route="right" depart="639" />
    <vehicle id="right_381" type="passenger" route="right" depart="640" />
    <vehicle id="up_382" type="passenger" route="up" depart="640" color="1,0,0"/>
    <vehicle id="left_383" type="passenger" route="left" depart="641" />
    <vehicle id="right_384" type="passenger" route="right" depart="642" />
    <vehicle id="left_385" type="passenger" route="left" depart="643" />