<routes>
            <vType id="passenger" accel="0.8" decel="4.5" sigma="0.5" length="5" minGap="2.5" maxSpeed="16.67"     guiShape="passenger"/>
            <vType id="typeNS" accel="0.8" decel="4.5" sigma="0.5" length="7" minGap="3" maxSpeed="25" guiShape="bus"/>

            <route id="right" edges="51o 1i 2o 52i" />
            <route id="left" edges="52o 2i 1o 51i" />
            <route id="down" edges="54o 4i 3o 53i" />
            <route id="up" edges="53o 3i 4o 54i" />
            
    <vehicle id="left_0" type="passenger" route="left" depart="0" />
    <vehicle id="left_1" type="passenger" route="left" depart="2" />
    <vehicle id="right_2" type="passenger" route="right" depart="3" />
    <vehicle id="left_3" type="passenger" route="left" depart="3" />
    <vehicle id="right_4" type="passenger" route="right" depart="4" />
    <vehicle id="up_5" type="passenger" route="up" depart="4" color="1,0,0"/>
    <vehicle id="down_6" type="passenger" route="down" depart="6" color="1,0,0"/>
    <vehicle id="left_7" type="passenger" route="left" depart="10" />
    <vehicle id="right_8" type="passenger" route="right" depart="11" />
    <vehicle id="right_9" type="passenger" route="right" depart="14" />
    <vehicle id="up_10" type="passenger" route="up" depart="16" color="1,0,0"/>
    <vehicle id="right_11" type="passenger" route="right" depart="22" />
    <vehicle id="left_12" type="passenger" route="left" depart="22" />
    <vehicle id="down_13" type="passenger" route="down" depart="23" color="1,0,0"/>
    <vehicle id="right_14" type="passenger" route="right" depart="25" />
    <vehicle id="left_15" type="passenger" route="left" depart="28" />
    <vehicle id="right_16" type="passenger" route="right" depart="31" />
    <vehicle id="down_17" type="passenger" route="down" depart="31" color="1,0,0"/>
    <vehicle id="up_18" type="passenger" route="up" depart="32" color="1,0,0"/>
    <vehicle id="down_19" type="passenger" route="down" depart="33" color="1,0,0"/>
    <vehicle id="right_20" type="passenger" route="right" depart="34" />
    <vehicle id="right_21" type="passenger" route="right" depart="37" />
    <vehicle id="right_22" type="passenger" route="right" depart="40" />
    <vehicle id="left_23" type="passenger" route="left" depart="41" />
    <vehicle id="right_24" type="passenger" route="right" depart="42" />
    <vehicle id="left_25" type="passenger" route="left" depart="42" />
    <vehicle id="right_26" type="passenger" route="right" depart="44" />
    <vehicle id="right_27" type="passenger" route="right" depart="47" />
    <vehicle id="right_28" type="passenger" route="right" depart="48" />
    <vehicle id="left_29" type="passenger" route="left" depart="49" />
    <vehicle id="up_30" type="passenger" route="up" depart="51" color="1,0,0"/>
    <vehicle id="right_31" type="passenger" route="right" depart="56" />
    <vehicle id="right_32" type="passenger" route="right" depart="57" />
    <vehicle id="down_33" type="passenger" route="down" depart="57" color="1,0,0"/>
    <vehicle id="right_34" type="passenger" route="right" depart="61" />
    <vehicle id="right_35" type="passenger" route="right" depart="63" />
    <vehicle id="right_36" type="passenger" route="right" depart="64" />
    <vehicle id="left_37" type="passenger" route="left" depart="67" />
    <vehicle id="right_38" type="passenger" route="right" depart="69" />
    <vehicle id="down_39" type="passenger" route="down" depart="72" color="1,0,0"/>
    <vehicle id="left_40" type="passenger" route="left" depart="74" />
    <vehicle id="down_41" type="passenger" route="down" depart="74" color="1,0,0"/>
    <vehicle id="right_42" type="passenger" route="right" depart="76" />
    <vehicle id="left_43" type="passenger" route="left" depart="76" />
    <vehicle id="right_44" type="passenger" route="right" depart="78" />
    <vehicle id="left_45" type="passenger" route="left" depart="78" />
    <vehicle id="right_46" type="passenger" route="right" depart="81" />
    <vehicle id="left_47" type="passenger" route="left" depart="83" />
    <vehicle id="right_48" type="passenger" route="right" depart="84" />
    <vehicle id="down_49" type="passenger" route="down" depart="85" color="1,0,0"/>
    <vehicle id="left_50" type="passenger" route="left" depart="88" />
    <vehicle id="right_51" type="passenger" route="right" depart="92" />
    <vehicle id="up_52" type="passenger" route="up" depart="93" color="1,0,0"/>
    <vehicle id="down_53" type="passenger" route="down" depart="98" color="1,0,0"/>
    <vehicle id="left_54" type="passenger" route="left" depart="101" />
    <vehicle id="down_55" type="passenger" route="down" depart="101" color="1,0,0"/>
    <vehicle id="up_56" type="passenger" route="up" depart="103" color="1,0,0"/>
    <vehicle id="right_57" type="passenger" route="right" depart="104" />
    <vehicle id="up_58" type="passenger" route="up" depart="104" color="1,0,0"/>
    <vehicle id="up_59" type="passenger" route="up" depart="106" color="1,0,0"/>
    <vehicle id="right_60" type="passenger" route="right" depart="108" />
    <vehicle id="up_61" type="passenger" route="up" depart="108" color="1,0,0"/>
    <vehicle id="right_62" type="passenger" route="right" depart="109" />
    <vehicle id="right_63" type="passenger" route="right" depart="115" />
    <vehicle id="left_64" type="passenger" route="left" depart="116" />
    <vehicle id="left_65" type="passenger" route="left" depart="117" />
    <vehicle id="left_66" type="passenger" route="left" depart="120" />
    <vehicle id="left_67" type="passenger" route="left" depart="123" />
    <vehicle id="left_68" type="passenger" route="left" depart="124" />
    <vehicle id="left_69" type="passenger" route="left" depart="125" />
    <vehicle id="right_70" type="passenger" route="right" depart="126" />
    <vehicle id="right_71" type="passenger" route="right" depart="127" />
    <vehicle id="left_72" type="passenger" route="left" depart="129" />
    <vehicle id="down_73" type="passenger" route="down" depart="129" color="1,0,0"/>
    <vehicle id="right_74" type="passenger" route="right" depart="132" />
    <vehicle id="left_75" type="passenger" route="left" depart="132" />
    <vehicle id="right_76" type="passenger" route="right" depart="134" />
    <vehicle id="up_77" type="passenger" route="up" depart="135" color="1,0,0"/>
    <vehicle id="left_78" type="passenger" route="left" depart="137" />
    <vehicle id="right_79" type="passenger" route="right" depart="138" />
    <vehicle id="right_80" type="passenger" route="right" depart="139" />
    <vehicle id="left_81" type="passenger" route="left" depart="147" />
    <vehicle id="right_82" type="passenger" route="right" depart="148" />
    <vehicle id="down_83" type="passenger" route="down" depart="149" color="1,0,0"/>
    <vehicle id="right_84" type="passenger" route="right" depart="150" />
    <vehicle id="right_85" type="passenger" route="right" depart="152" />
    <vehicle id="left_86" type="passenger" route="left" depart="155" />
    <vehicle id="left_87" type="passenger" route="left" depart="158" />
    <vehicle id="right_88" type="passenger" route="right" depart="159" />
    <vehicle id="left_89" type="passenger" route="left" depart="159" />
    <vehicle id="up_90" type="passenger" route="up" depart="162" color="1,0,0"/>
    <vehicle id="right_91" type="passenger" route="right" depart="164" />
    <vehicle id="down_92" type="passenger" route="down" depart="164" color="1,0,0"/>
    <vehicle id="left_93" type="passenger" route="left" depart="170" />
    <vehicle id="up_94" type="passenger" route="up" depart="170" color="1,0,0"/>
    <vehicle id="right_95" type="passenger" route="right" depart="171" />
    <vehicle id="right_96" type="passenger" route="right" depart="172" />
    <vehicle id="up_97" type="passenger" route="up" depart="175" color="1,0,0"/>
    <vehicle id="right_98" type="passenger" route="right" depart="176" />
    <vehicle id="left_99" type="passenger" route="left" depart="177" />
    <vehicle id="up_100" type="passenger" route="up" depart="178" color="1,0,0"/>
    <vehicle id="right_101" type="passenger" route="right" depart="179" />
    <vehicle id="right_102" type="passenger" route="right" depart="180" />
    <vehicle id="right_103" type="passenger" route="right" depart="182" />
    <vehicle id="left_104" type="passenger" route="left" depart="183" />
    <vehicle id="left_105" type="passenger" route="left" depart="184" />
    <vehicle id="right_106" type="passenger" route="right" depart="192" />
    <vehicle id="right_107" type="passenger" route="right" depart="193" />
</routes>
