<routes>
            <vType id="passenger" accel="0.8" decel="4.5" sigma="0.5" length="5" minGap="2.5" maxSpeed="16.67"     guiShape="passenger"/>
            <vType id="typeNS" accel="0.8" decel="4.5" sigma="0.5" length="7" minGap="3" maxSpeed="25" guiShape="bus"/>

            <route id="right" edges="51o 1i 2o 52i" />
            <route id="left" edges="52o 2i 1o 51i" />
            <route id="down" edges="54o 4i 3o 53i" />
            <route id="up" edges="53o 3i 4o 54i" />
            
    <vehicle id="left_0" type="passenger" route="left" depart="0" />
    <vehicle id="left_1" type="passenger" route="left" depart="2" />
    <vehicle id="right_2" type="passenger" route="right" depart="3" />
    <vehicle id="up_3" type="passenger" route="up" depart="4" color="1,0,0"/>
    <vehicle id="down_4" type="passenger" route="down" depart="6" color="1,0,0"/>
    <vehicle id="left_5" type="passenger" route="left" depart="10" />
    <vehicle id="right_6" type="passenger" route="right" depart="11" />
    <vehicle id="up_7" type="passenger" route="up" depart="16" color="1,0,0"/>
    <vehicle id="right_8" type="passenger" route="right" depart="22" />
    <vehicle id="left_9" type="passenger" route="left" depart="22" />
    <vehicle id="down_10" type="passenger" route="down" depart="23" color="1,0,0"/>
    <vehicle id="right_11" type="passenger" route="right" depart="25" />
    <vehicle id="right_12" type="passenger" route="right" depart="31" />
    <vehicle id="down_13" type="passenger" route="down" depart="31" color="1,0,0"/>
    <vehicle id="up_14" type="passenger" route="up" depart="32" color="1,0,0"/>
    <vehicle id="down_15" type="passenger" route="down" depart="33" color="1,0,0"/>
    <vehicle id="right_16" type="passenger" route="right" depart="34" />
    <vehicle id="right_17" type="passenger" route="right" depart="40" />
    <vehicle id="left_18" type="passenger" route="left" depart="41" />
    <vehicle id="right_19" type="passenger" route="right" depart="44" />
    <vehicle id="left_20" type="passenger" route="left" depart="49" />
    <vehicle id="up_21" type="passenger" route="up" depart="51" color="1,0,0"/>
    <vehicle id="right_22" type="passenger" route="right" depart="56" />
    <vehicle id="down_23" type="passenger" route="down" depart="57" color="1,0,0"/>
    <vehicle id="right_24" type="passenger" route="right" depart="63" />
    <vehicle id="right_25" type="passenger" route="right" depart="64" />
    <vehicle id="left_26" type="passenger" route="left" depart="67" />
    <vehicle id="right_27" type="passenger" route="right" depart="69" />
    <vehicle id="down_28" type="passenger" route="down" depart="72" color="1,0,0"/>
    <vehicle id="left_29" type="passenger" route="left" depart="74" />
    <vehicle id="down_30" type="passenger" route="down" depart="74" color="1,0,0"/>
    <vehicle id="right_31" type="passenger" route="right" depart="81" />
    <vehicle id="down_32" type="passenger" route="down" depart="85" color="1,0,0"/>
    <vehicle id="right_33" type="passenger" route="right" depart="92" />
    <vehicle id="up_34" type="passenger" route="up" depart="93" color="1,0,0"/>
    <vehicle id="down_35" type="passenger" route="down" depart="98" color="1,0,0"/>
    <vehicle id="down_36" type="passenger" route="down" depart="101" color="1,0,0"/>
    <vehicle id="up_37" type="passenger" route="up" depart="103" color="1,0,0"/>
    <vehicle id="up_38" type="passenger" route="up" depart="104" color="1,0,0"/>
    <vehicle id="up_39" type="passenger" route="up" depart="106" color="1,0,0"/>
    <vehicle id="up_40" type="passenger" route="up" depart="108" color="1,0,0"/>
    <vehicle id="right_41" type="passenger" route="right" depart="115" />
    <vehicle id="left_42" type="passenger" route="left" depart="117" />
    <vehicle id="left_43" type="passenger" route="left" depart="120" />
    <vehicle id="left_44" type="passenger" route="left" depart="123" />
    <vehicle id="left_45" type="passenger" route="left" depart="125" />
    <vehicle id="right_46" type="passenger" route="right" depart="126" />
    <vehicle id="right_47" type="passenger" route="right" depart="127" />
    <vehicle id="left_48" type="passenger" route="left" depart="129" />
    <vehicle id="down_49" type="passenger" route="down" depart="129" color="1,0,0"/>
    <vehicle id="right_50" type="passenger" route="right" depart="132" />
    <vehicle id="up_51" type="passenger" route="up" depart="135" color="1,0,0"/>
    <vehicle id="left_52" type="passenger" route="left" depart="137" />
    <vehicle id="right_53" type="passenger" route="right" depart="138" />
    <vehicle id="left_54" type="passenger" route="left" depart="147" />
    <vehicle id="down_55" type="passenger" route="down" depart="149" color="1,0,0"/>
    <vehicle id="right_56" type="passenger" route="right" depart="150" />
    <vehicle id="right_57" type="passenger" route="right" depart="152" />
    <vehicle id="left_58" type="passenger" route="left" depart="159" />
    <vehicle id="up_59" type="passenger" route="up" depart="162" color="1,0,0"/>
    <vehicle id="right_60" type="passenger" route="right" depart="164" />
    <vehicle id="down_61" type="passenger" route="down" depart="164" color="1,0,0"/>
    <vehicle id="up_62" type="passenger" route="up" depart="170" color="1,0,0"/>
    <vehicle id="right_63" type="passenger" route="right" depart="171" />
    <vehicle id="up_64" type="passenger" route="up" depart="175" color="1,0,0"/>
    <vehicle id="up_65" type="passenger" route="up" depart="178" color="1,0,0"/>
    <vehicle id="right_66" type="passenger" route="right" depart="179" />
    <vehicle id="right_67" type="passenger" route="right" depart="180" />
    <vehicle id="right_68" type="passenger" route="right" depart="182" />
    <vehicle id="left_69" type="passenger" route="left" depart="204" />
    <vehicle id="down_70" type="passenger" route="down" depart="206" color="1,0,0"/>
    <vehicle id="up_71" type="passenger" route="up" depart="212" color="1,0,0"/>
    <vehicle id="right_72" type="passenger" route="right" depart="213" />
    <vehicle id="down_73" type="passenger" route="down" depart="214" color="1,0,0"/>
    <vehicle id="right_74" type="passenger" route="right" depart="216" />
    <vehicle id="left_75" type="passenger" route="left" depart="218" />
    <vehicle id="down_76" type="passenger" route="down" depart="220" color="1,0,0"/>
    <vehicle id="right_77" type="passenger" route="right" depart="227" />
    <vehicle id="left_78" type="passenger" route="left" depart="232" />
    <vehicle id="right_79" type="passenger" route="right" depart="239" />
    <vehicle id="right_80" type="passenger" route="right" depart="241" />
    <vehicle id="down_81" type="passenger" route="down" depart="241" color="1,0,0"/>
    <vehicle id="up_82" type="passenger" route="up" depart="242" color="1,0,0"/>
    <vehicle id="right_83" type="passenger" route="right" depart="245" />
    <vehicle id="up_84" type="passenger" route="up" depart="248" color="1,0,0"/>
    <vehicle id="right_85" type="passenger" route="right" depart="250" />
    <vehicle id="left_86" type="passenger" route="left" depart="253" />
    <vehicle id="down_87" type="passenger" route="down" depart="254" color="1,0,0"/>
    <vehicle id="down_88" type="passenger" route="down" depart="256" color="1,0,0"/>
    <vehicle id="left_89" type="passenger" route="left" depart="258" />
    <vehicle id="down_90" type="passenger" route="down" depart="258" color="1,0,0"/>
    <vehicle id="up_91" type="passenger" route="up" depart="259" color="1,0,0"/>
    <vehicle id="left_92" type="passenger" route="left" depart="262" />
    <vehicle id="up_93" type="passenger" route="up" depart="263" color="1,0,0"/>
    <vehicle id="left_94" type="passenger" route="left" depart="265" />
    <vehicle id="down_95" type="passenger" route="down" depart="265" color="1,0,0"/>
    <vehicle id="right_96" type="passenger" route="right" depart="266" />
    <vehicle id="up_97" type="passenger" route="up" depart="272" color="1,0,0"/>
    <vehicle id="down_98" type="passenger" route="down" depart="273" color="1,0,0"/>
    <vehicle id="left_99" type="passenger" route="left" depart="281" />
    <vehicle id="left_100" type="passenger" route="left" depart="283" />
    <vehicle id="up_101" type="passenger" route="up" depart="284" color="1,0,0"/>
    <vehicle id="right_102" type="passenger" route="right" depart="287" />
    <vehicle id="left_103" type="passenger" route="left" depart="287" />
    <vehicle id="left_104" type="passenger" route="left" depart="291" />
    <vehicle id="right_105" type="passenger" route="right" depart="292" />
    <vehicle id="down_106" type="passenger" route="down" depart="293" color="1,0,0"/>
    <vehicle id="down_107" type="passenger" route="down" depart="295" color="1,0,0"/>
    <vehicle id="right_108" type="passenger" route="right" depart="296" />
    <vehicle id="left_109" type="passenger" route="left" depart="296" />
    <vehicle id="left_110" type="passenger" route="left" depart="298" />
    <vehicle id="right_111" type="passenger" route="right" depart="309" />
    <vehicle id="right_112" type="passenger" route="right" depart="310" />
    <vehicle id="right_113" type="passenger" route="right" depart="311" />
    <vehicle id="down_114" type="passenger" route="down" depart="311" color="1,0,0"/>
    <vehicle id="left_115" type="passenger" route="left" depart="315" />
    <vehicle id="right_116" type="passenger" route="right" depart="320" />
    <vehicle id="right_117" type="passenger" route="right" depart="329" />
    <vehicle id="down_118" type="passenger" route="down" depart="330" color="1,0,0"/>
    <vehicle id="right_119" type="passenger" route="right" depart="340" />
    <vehicle id="left_120" type="passenger" route="left" depart="343" />
    <vehicle id="down_121" type="passenger" route="down" depart="343" color="1,0,0"/>
    <vehicle id="up_122" type="passenger" route="up" depart="344" color="1,0,0"/>
    <vehicle id="up_123" type="passenger" route="up" depart="347" color="1,0,0"/>
    <vehicle id="right_124" type="passenger" route="right" depart="348" />
    <vehicle id="left_125" type="passenger" route="left" depart="350" />
    <vehicle id="right_126" type="passenger" route="right" depart="352" />
    <vehicle id="left_127" type="passenger" route="left" depart="354" />
    <vehicle id="up_128" type="passenger" route="up" depart="354" color="1,0,0"/>
    <vehicle id="left_129" type="passenger" route="left" depart="357" />
    <vehicle id="left_130" type="passenger" route="left" depart="359" />
    <vehicle id="down_131" type="passenger" route="down" depart="361" color="1,0,0"/>
    <vehicle id="down_132" type="passenger" route="down" depart="362" color="1,0,0"/>
    <vehicle id="right_133" type="passenger" route="right" depart="363" />
    <vehicle id="left_134" type="passenger" route="left" depart="369" />
    <vehicle id="down_135" type="passenger" route="down" depart="370" color="1,0,0"/>
    <vehicle id="left_136" type="passenger" route="left" depart="372" />
    <vehicle id="right_137" type="passenger" route="right" depart="374" />
    <vehicle id="left_138" type="passenger" route="left" depart="376" />
    <vehicle id="down_139" type="passenger" route="down" depart="376" color="1,0,0"/>
    <vehicle id="down_140" type="passenger" route="down" depart="384" color="1,0,0"/>
    <vehicle id="up_141" type="passenger" route="up" depart="385" color="1,0,0"/>
    <vehicle id="right_142" type="passenger" route="right" depart="389" />
    <vehicle id="down_143" type="passenger" route="down" depart="390" color="1,0,0"/>
    <vehicle id="left_144" type="passenger" route="left" depart="392" />
    <vehicle id="down_145" type="passenger" route="down" depart="395" color="1,0,0"/>
    <vehicle id="right_146" type="passenger" route="right" depart="402" />
    <vehicle id="left_147" type="passenger" route="left" depart="402" />
    <vehicle id="right_148" type="passenger" route="right" depart="406" />
    <vehicle id="left_149" type="passenger" route="left" depart="406" />
    <vehicle id="down_150" type="passenger" route="down" depart="410" color="1,0,0"/>
    <vehicle id="left_151" type="passenger" route="left" depart="414" />
    <vehicle id="up_152" type="passenger" route="up" depart="415" color="1,0,0"/>
    <vehicle id="up_153" type="passenger" route="up" depart="419" color="1,0,0"/>
    <vehicle id="up_154" type="passenger" route="up" depart="423" color="1,0,0"/>
    <vehicle id="left_155" type="passenger" route="left" depart="430" />
    <vehicle id="up_156" type="passenger" route="up" depart="433" color="1,0,0"/>
    <vehicle id="down_157" type="passenger" route="down" depart="434" color="1,0,0"/>
    <vehicle id="up_158" type="passenger" route="up" depart="436" color="1,0,0"/>
    <vehicle id="down_159" type="passenger" route="down" depart="450" color="1,0,0"/>
    <vehicle id="up_160" type="passenger" route="up" depart="451" color="1,0,0"/>
    <vehicle id="right_161" type="passenger" route="right" depart="459" />
    <vehicle id="down_162" type="passenger" route="down" depart="465" color="1,0,0"/>
    <vehicle id="down_163" type="passenger" route="down" depart="468" color="1,0,0"/>
    <vehicle id="left_164" type="passenger" route="left" depart="469" />
    <vehicle id="up_165" type="passenger" route="up" depart="475" color="1,0,0"/>
    <vehicle id="down_166" type="passenger" route="down" depart="476" color="1,0,0"/>
    <vehicle id="right_167" type="passenger" route="right" depart="477" />
    <vehicle id="down_168" type="passenger" route="down" depart="479" color="1,0,0"/>
    <vehicle id="right_169" type="passenger" route="right" depart="481" />
    <vehicle id="right_170" type="passenger" route="right" depart="483" />
    <vehicle id="down_171" type="passenger" route="down" depart="483" color="1,0,0"/>
    <vehicle id="left_172" type="passenger" route="left" depart="484" />
    <vehicle id="up_173" type="passenger" route="up" depart="484" color="1,0,0"/>
    <vehicle id="left_174" type="passenger" route="left" depart="490" />
    <vehicle id="down_175" type="passenger" route="down" depart="490" color="1,0,0"/>
    <vehicle id="down_176" type="passenger" route="down" depart="494" color="1,0,0"/>
    <vehicle id="right_177" type="passenger" route="right" depart="495" />
    <vehicle id="left_178" type="passenger" route="left" depart="495" />
    <vehicle id="right_179" type="passenger" route="right" depart="496" />
    <vehicle id="down_180" type="passenger" route="down" depart="497" color="1,0,0"/>
    <vehicle id="right_181" type="passenger" route="right" depart="501" />
    <vehicle id="down_182" type="passenger" route="down" depart="512" color="1,0,0"/>
    <vehicle id="right_183" type="passenger" route="right" depart="517" />
    <vehicle id="down_184" type="passenger" route="down" depart="525" color="1,0,0"/>
    <vehicle id="up_185" type="passenger" route="up" depart="525" color="1,0,0"/>
    <vehicle id="right_186" type="passenger" route="right" depart="528" />
    <vehicle id="right_187" type="passenger" route="right" depart="530" />
    <vehicle id="down_188" type="passenger" route="down" depart="530" color="1,0,0"/>
    <vehicle id="down_189" type="passenger" route="down" depart="531" color="1,0,0"/>
    <vehicle id="right_190" type="passenger" route="right" depart="533" />
    <vehicle id="right_191" type="passenger" route="right" depart="538" />
    <vehicle id="left_192" type="passenger" route="left" depart="538" />
    <vehicle id="right_193" type="passenger" route="right" depart="540" />
    <vehicle id="down_194" type="passenger" route="down" depart="540" color="1,0,0"/>
    <vehicle id="up_195" type="passenger" route="up" depart="541" color="1,0,0"/>
    <vehicle id="right_196" type="passenger" route="right" depart="542" />
    <vehicle id="right_197" type="passenger" route="right" depart="543" />
    <vehicle id="right_198" type="passenger" route="right" depart="545" />
    <vehicle id="left_199" type="passenger" route="left" depart="548" />
    <vehicle id="left_200" type="passenger" route="left" depart="550" />
    <vehicle id="down_201" type="passenger" route="down" depart="552" color="1,0,0"/>
    <vehicle id="down_202" type="passenger" route="down" depart="553" color="1,0,0"/>
    <vehicle id="right_203" type="passenger" route="right" depart="555" />
    <vehicle id="left_204" type="passenger" route="left" depart="555" />
    <vehicle id="down_205" type="passenger" route="down" depart="557" color="1,0,0"/>
    <vehicle id="right_206" type="passenger" route="right" depart="558" />
    <vehicle id="down_207" type="passenger" route="down" depart="559" color="1,0,0"/>
    <vehicle id="right_208" type="passenger" route="right" depart="562" />
    <vehicle id="right_209" type="passenger" route="right" depart="563" />
    <vehicle id="left_210" type="passenger" route="left" depart="576" />
    <vehicle id="down_211" type="passenger" route="down" depart="579" color="1,0,0"/>
    <vehicle id="up_212" type="passenger" route="up" depart="580" color="1,0,0"/>
    <vehicle id="down_213" type="passenger" route="down" depart="582" color="1,0,0"/>
    <vehicle id="down_214" type="passenger" route="down" depart="585" color="1,0,0"/>
    <vehicle id="up_215" type="passenger" route="up" depart="593" color="1,0,0"/>
    <vehicle id="right_216" type="passenger" route="right" depart="596" />
    <vehicle id="right_217" type="passenger" route="right" depart="601" />
    <vehicle id="right_218" type="passenger" route="right" depart="606" />
    <vehicle id="down_219" type="passenger" route="down" depart="606" color="1,0,0"/>
    <vehicle id="right_220" type="passenger" route="right" depart="609" />
    <vehicle id="left_221" type="passenger" route="left" depart="609" />
    <vehicle id="left_222" type="passenger" route="left" depart="613" />
    <vehicle id="down_223" type="passenger" route="down" depart="619" color="1,0,0"/>
    <vehicle id="right_224" type="passenger" route="right" depart="629" />
    <vehicle id="up_225" type="passenger" route="up" depart="630" color="1,0,0"/>
    <vehicle id="right_226" type="passenger" route="right" depart="634" />
    <vehicle id="up_227" type="passenger" route="up" depart="635" color="1,0,0"/>
    <vehicle id="up_228" type="passenger" route="up" depart="640" color="1,0,0"/>
    <vehicle id="right_229" type="passenger" route="right" depart="642" />
    <vehicle id="down_230" type="passenger" route="down" depart="643" color="1,0,0"/>
    <vehicle id="up_231" type="passenger" route="up" depart="646" color="1,0,0"/>
    <vehicle id="right_232" type="passenger" route="right" depart="649" />
    <vehicle id="left_233" type="passenger" route="left" depart="651" />
    <vehicle id="down_234" type="passenger" route="down" depart="654" color="1,0,0"/>
    <vehicle id="left_235" type="passenger" route="left" depart="659" />
    <vehicle id="down_236" type="passenger" route="down" depart="659" color="1,0,0"/>
    <vehicle id="right_237" type="passenger" route="right" depart="660" />
    <vehicle id="left_238" type="passenger" route="left" depart="660" />
    <vehicle id="right_239" type="passenger" route="right" depart="662" />
    <vehicle id="left_240" type="passenger" route="left" depart="665" />
    <vehicle id="left_241" type="passenger" route="left" depart="666" />
    <vehicle id="down_242" type="passenger" route="down" depart="666" color="1,0,0"/>
    <vehicle id="up_243" type="passenger" route="up" depart="671" color="1,0,0"/>
    <vehicle id="down_244" type="passenger" route="down" depart="672" color="1,0,0"/>
    <vehicle id="left_245" type="passenger" route="left" depart="673" />
    <vehicle id="right_246" type="passenger" route="right" depart="675" />
    <vehicle id="left_247" type="passenger" route="left" depart="676" />
    <vehicle id="left_248" type="passenger" route="left" depart="680" />
    <vehicle id="left_249" type="passenger" route="left" depart="682" />
    <vehicle id="up_250" type="passenger" route="up" depart="683" color="1,0,0"/>
    <vehicle id="right_251" type="passenger" route="right" depart="687" />
    <vehicle id="up_252" type="passenger" route="up" depart="688" color="1,0,0"/>
    <vehicle id="up_253" type="passenger" route="up" depart="690" color="1,0,0"/>
    <vehicle id="down_254" type="passenger" route="down" depart="691" color="1,0,0"/>
    <vehicle id="left_255" type="passenger" route="left" depart="693" />
    <vehicle id="down_256" type="passenger" route="down" depart="693" color="1,0,0"/>
    <vehicle id="left_257" type="passenger" route="left" depart="694" />
    <vehicle id="left_258" type="passenger" route="left" depart="697" />
    <vehicle id="up_259" type="passenger" route="up" depart="701" color="1,0,0"/>
    <vehicle id="down_260" type="passenger" route="down" depart="702" color="1,0,0"/>
    <vehicle id="left_261" type="passenger" route="left" depart="704" />
    <vehicle id="left_262" type="passenger" route="left" depart="706" />
    <vehicle id="right_263" type="passenger" route="right" depart="709" />
    <vehicle id="left_264" type="passenger" route="left" depart="709" />
    <vehicle id="right_265" type="passenger" route="right" depart="711" />
    <vehicle id="down_266" type="passenger" route="down" depart="712" color="1,0,0"/>
    <vehicle id="left_267" type="passenger" route="left" depart="714" />
    <vehicle id="up_268" type="passenger" route="up" depart="715" color="1,0,0"/>
    <vehicle id="left_269" type="passenger" route="left" depart="721" />
    <vehicle id="right_270" type="passenger" route="right" depart="724" />
    <vehicle id="left_271" type="passenger" route="left" depart="727" />
    <vehicle id="right_272" type="passenger" route="right" depart="730" />
    <vehicle id="right_273" type="passenger" route="right" depart="731" />
    <vehicle id="right_274" type="passenger" route="right" depart="733" />
    <vehicle id="up_275" type="passenger" route="up" depart="741" color="1,0,0"/>
    <vehicle id="right_276" type="passenger" route="right" depart="745" />
    <vehicle id="up_277" type="passenger" route="up" depart="746" color="1,0,0"/>
    <vehicle id="down_278" type="passenger" route="down" depart="747" color="1,0,0"/>
    <vehicle id="right_279" type="passenger" route="right" depart="751" />
    <vehicle id="left_280" type="passenger" route="left" depart="752" />
    <vehicle id="up_281" type="passenger" route="up" depart="754" color="1,0,0"/>
    <vehicle id="right_282" type="passenger" route="right" depart="756" />
    <vehicle id="left_283" type="passenger" route="left" depart="758" />
    <vehicle id="up_284" type="passenger" route="up" depart="760" color="1,0,0"/>
    <vehicle id="down_285" type="passenger" route="down" depart="761" color="1,0,0"/>
    <vehicle id="right_286" type="passenger" route="right" depart="763" />
    <vehicle id="down_287" type="passenger" route="down" depart="765" color="1,0,0"/>
    <vehicle id="left_288" type="passenger" route="left" depart="766" />
    <vehicle id="up_289" type="passenger" route="up" depart="769" color="1,0,0"/>
    <vehicle id="up_290" type="passenger" route="up" depart="775" color="1,0,0"/>
    <vehicle id="left_291" type="passenger" route="left" depart="782" />
    <vehicle id="down_292" type="passenger" route="down" depart="783" color="1,0,0"/>
    <vehicle id="left_293" type="passenger" route="left" depart="785" />
    <vehicle id="down_294" type="passenger" route="down" depart="792" color="1,0,0"/>
    <vehicle id="up_295" type="passenger" route="up" depart="795" color="1,0,0"/>
    <vehicle id="right_296" type="passenger" route="right" depart="801" />
    <vehicle id="up_297" type="passenger" route="up" depart="801" color="1,0,0"/>
    <vehicle id="up_298" type="passenger" route="up" depart="802" color="1,0,0"/>
    <vehicle id="down_299" type="passenger" route="down" depart="808" color="1,0,0"/>
    <vehicle id="right_300" type="passenger" route="right" depart="814" />
    <vehicle id="right_301" type="passenger" route="right" depart="823" />
    <vehicle id="down_302" type="passenger" route="down" depart="824" color="1,0,0"/>
    <vehicle id="left_303" type="passenger" route="left" depart="828" />
    <vehicle id="right_304" type="passenger" route="right" depart="830" />
    <vehicle id="down_305" type="passenger" route="down" depart="831" color="1,0,0"/>
    <vehicle id="left_306" type="passenger" route="left" depart="832" />
    <vehicle id="left_307" type="passenger" route="left" depart="841" />
    <vehicle id="left_308" type="passenger" route="left" depart="842" />
    <vehicle id="left_309" type="passenger" route="left" depart="843" />
    <vehicle id="left_310" type="passenger" route="left" depart="850" />
    <vehicle id="down_311" type="passenger" route="down" depart="851" color="1,0,0"/>
    <vehicle id="right_312" type="passenger" route="right" depart="853" />
    <vehicle id="up_313" type="passenger" route="up" depart="855" color="1,0,0"/>
    <vehicle id="right_314" type="passenger" route="right" depart="857" />
    <vehicle id="down_315" type="passenger" route="down" depart="857" color="1,0,0"/>
    <vehicle id="down_316" type="passenger" route="down" depart="859" color="1,0,0"/>
    <vehicle id="up_317" type="passenger" route="up" depart="862" color="1,0,0"/>
    <vehicle id="left_318" type="passenger" route="left" depart="865" />
    <vehicle id="left_319" type="passenger" route="left" depart="867" />
    <vehicle id="down_320" type="passenger" route="down" depart="870" color="1,0,0"/>
    <vehicle id="up_321" type="passenger" route="up" depart="872" color="1,0,0"/>
    <vehicle id="left_322" type="passenger" route="left" depart="874" />
    <vehicle id="left_323" type="passenger" route="left" depart="875" />
    <vehicle id="left_324" type="passenger" route="left" depart="879" />
    <vehicle id="down_325" type="passenger" route="down" depart="879" color="1,0,0"/>
    <vehicle id="up_326" type="passenger" route="up" depart="881" color="1,0,0"/>
    <vehicle id="right_327" type="passenger" route="right" depart="886" />
    <vehicle id="left_328" type="passenger" route="left" depart="892" />
    <vehicle id="right_329" type="passenger" route="right" depart="906" />
    <vehicle id="right_330" type="passenger" route="right" depart="909" />
    <vehicle id="up_331" type="passenger" route="up" depart="913" color="1,0,0"/>
    <vehicle id="down_332" type="passenger" route="down" depart="921" color="1,0,0"/>
    <vehicle id="left_333" type="passenger" route="left" depart="924" />
    <vehicle id="right_334" type="passenger" route="right" depart="928" />
    <vehicle id="up_335" type="passenger" route="up" depart="932" color="1,0,0"/>
    <vehicle id="up_336" type="passenger" route="up" depart="934" color="1,0,0"/>
    <vehicle id="right_337" type="passenger" route="right" depart="935" />
    <vehicle id="right_338" type="passenger" route="right" depart="939" />
    <vehicle id="left_339" type="passenger" route="left" depart="939" />
    <vehicle id="down_340" type="passenger" route="down" depart="941" color="1,0,0"/>
    <vehicle id="down_341" type="passenger" route="down" depart="943" color="1,0,0"/>
    <vehicle id="right_342" type="passenger" route="right" depart="944" />
    <vehicle id="left_343" type="passenger" route="left" depart="950" />
    <vehicle id="left_344" type="passenger" route="left" depart="956" />
    <vehicle id="down_345" type="passenger" route="down" depart="956" color="1,0,0"/>
    <vehicle id="right_346" type="passenger" route="right" depart="958" />
    <vehicle id="right_347" type="passenger" route="right" depart="961" />
    <vehicle id="left_348" type="passenger" route="left" depart="966" />
    <vehicle id="down_349" type="passenger" route="down" depart="966" color="1,0,0"/>
    <vehicle id="up_350" type="passenger" route="up" depart="966" color="1,0,0"/>
    <vehicle id="left_351" type="passenger" route="left" depart="967" />
    <vehicle id="right_352" type="passenger" route="right" depart="976" />
    <vehicle id="down_353" type="passenger" route="down" depart="976" color="1,0,0"/>
    <vehicle id="right_354" type="passenger" route="right" depart="978" />
    <vehicle id="down_355" type="passenger" route="down" depart="984" color="1,0,0"/>
    <vehicle id="left_356" type="passenger" route="left" depart="988" />
    <vehicle id="down_357" type="passenger" route="down" depart="988" color="1,0,0"/>
    <vehicle id="down_358" type="passenger" route="down" depart="989" color="1,0,0"/>
    <vehicle id="right_359" type="passenger" route="right" depart="990" />
    <vehicle id="down_360" type="passenger" route="down" depart="991" color="1,0,0"/>
    <vehicle id="down_361" type="passenger" route="down" depart="992" color="1,0,0"/>
    <vehicle id="right_362" type="passenger" route="right" depart="997" />
    <vehicle id="down_363" type="passenger" route="down" depart="998" color="1,0,0"/>
    <vehicle id="left_364" type="passenger" route="left" depart="999" />
    <vehicle id="down_365" type="passenger" route="down" depart="1002" color="1,0,0"/>
    <vehicle id="right_366" type="passenger" route="right" depart="1005" />
    <vehicle id="left_367" type="passenger" route="left" depart="1008" />
    <vehicle id="up_368" type="passenger" route="up" depart="1017" color="1,0,0"/>
    <vehicle id="right_369" type="passenger" route="right" depart="1018" />
    <vehicle id="right_370" type="passenger" route="right" depart="1019" />
    <vehicle id="down_371" type="passenger" route="down" depart="1019" color="1,0,0"/>
    <vehicle id="up_372" type="passenger" route="up" depart="1019" color="1,0,0"/>
    <vehicle id="down_373" type="passenger" route="down" depart="1023" color="1,0,0"/>
    <vehicle id="up_374" type="passenger" route="up" depart="1024" color="1,0,0"/>
    <vehicle id="left_375" type="passenger" route="left" depart="1025" />
    <vehicle id="down_376" type="passenger" route="down" depart="1027" color="1,0,0"/>