<?xml version="1.0" encoding="iso-8859-1"?>
<connections xmlns:xsi="http://www.w3.org/2001/XMLSchema-instance" xsi:noNamespaceSchemaLocation="http://sumo.dlr.de/xsd/connections_file.xsd">

  <connection from="1i" fromLane="0" toLane="0" to="2o"/>
	<connection from="1i" fromLane="1" toLane="1" to="2o"/>


	<connection from="2i" fromLane="0" toLane="0"  to="1o"/>
	<connection from="2i" fromLane="1" toLane="1"  to="1o"/>


	<connection from="3i" fromLane="0" to="4o" toLane="0" />
  <connection from="3i" fromLane="1" to="4o" toLane="1" />
	<connection from="4i" fromLane="0" to="3o" toLane="0"/>
  <connection from="4i" fromLane="1" to="3o" toLane="1" />

  <connection from="1i" fromLane="0" toLane="0" to="3o"/>
	<connection from="1i" fromLane="0" toLane="1" to="3o"/>
	<connection from="2i" fromLane="0" toLane="0"  to="4o"/>
	<connection from="2i" fromLane="0" toLane="1"  to="4o"/>
	<connection from="3i" fromLane="0" toLane="0" to="2o"/>
  <connection from="3i" fromLane="0" toLane="1" to="2o"/>
	<connection from="4i" fromLane="0" toLane="0" to="1o"/>
  <connection from="4i" fromLane="0" toLane="1" to="1o"/>
</connections>
